<?xml version="1.0" encoding="UTF-8"?>
<!-- generated on 2018-09-02 20:30:12.946201 by $Id$
  options: 
-->
<routes xmlns:xsi="http://www.w3.org/2001/XMLSchema-instance" xsi:noNamespaceSchemaLocation="http://sumo.dlr.de/xsd/routes_file.xsd">
    <vType id="pedestrian" vClass="pedestrian" speedDev="0.1"/>
    <person id="ped0" depart="0.00">
        <walk from="389101374#1" to="-15973619#3"/>
    </person>
    <person id="ped1" depart="3.38">
        <walk from="153698394" to="-591200194#0"/>
    </person>
    <person id="ped2" depart="6.76">
        <walk from="4588219#2" to="411610104#0"/>
    </person>
    <person id="ped3" depart="10.14">
        <walk from="532547382#6" to="-312744266#2"/>
    </person>
    <person id="ped4" depart="13.52">
        <walk from="237221877#0" to="-168935757#0"/>
    </person>
    <person id="ped5" depart="16.90">
        <walk from="-533509622#6" to="312744261#1"/>
    </person>
    <person id="ped6" depart="20.28">
        <walk from="-15973619#6" to="-4611714#8"/>
    </person>
    <person id="ped7" depart="23.66">
        <walk from="389101391" to="327735420#0"/>
    </person>
    <person id="ped8" depart="27.04">
        <walk from="-555247157" to="35557161#5"/>
    </person>
    <person id="ped9" depart="30.42">
        <walk from="465626388" to="-111833186#2"/>
    </person>
    <person id="ped10" depart="33.80">
        <walk from="46507253#1" to="42747981#3"/>
    </person>
    <person id="ped11" depart="37.18">
        <walk from="195089288#1" to="-4588215#1"/>
    </person>
    <person id="ped12" depart="40.56">
        <walk from="591200195#0" to="195088659#1"/>
    </person>
    <person id="ped13" depart="43.94">
        <walk from="-320462166#2" to="-326116285#2"/>
    </person>
    <person id="ped14" depart="47.31">
        <walk from="481651817#0" to="373292157#1"/>
    </person>
    <person id="ped15" depart="50.69">
        <walk from="465626386#1" to="4588215#0"/>
    </person>
    <person id="ped16" depart="54.07">
        <walk from="326116285#3" to="61584187#0"/>
    </person>
    <person id="ped17" depart="57.45">
        <walk from="199847279" to="327941679#2"/>
    </person>
    <person id="ped18" depart="60.83">
        <walk from="47423542#0" to="375311158#1"/>
    </person>
    <person id="ped19" depart="64.21">
        <walk from="518072911#1" to="346240656#3"/>
    </person>
    <person id="ped20" depart="67.59">
        <walk from="43156728#1" to="-195089288#0"/>
    </person>
    <person id="ped21" depart="70.97">
        <walk from="-66514478" to="15973619#7"/>
    </person>
    <person id="ped22" depart="74.35">
        <walk from="-292429056#1" to="10270987"/>
    </person>
    <person id="ped23" depart="77.73">
        <walk from="-327735420#0" to="154041912#2"/>
    </person>
    <person id="ped24" depart="81.11">
        <walk from="387141736" to="196850629#0"/>
    </person>
    <person id="ped25" depart="84.49">
        <walk from="199847247#1" to="-47423540#2"/>
    </person>
    <person id="ped26" depart="87.87">
        <walk from="147066248#5" to="551198296#4"/>
    </person>
    <person id="ped27" depart="91.25">
        <walk from="389101387" to="373866703#1"/>
    </person>
    <person id="ped28" depart="94.63">
        <walk from="-4597324#0" to="456400037#1"/>
    </person>
    <person id="ped29" depart="98.01">
        <walk from="-4588222#1" to="199847281#1"/>
    </person>
    <person id="ped30" depart="101.39">
        <walk from="83387877" to="389101374#2"/>
    </person>
    <person id="ped31" depart="104.77">
        <walk from="335462921#0" to="411610105#9"/>
    </person>
    <person id="ped32" depart="108.15">
        <walk from="4773464#0" to="4611714#2"/>
    </person>
    <person id="ped33" depart="111.53">
        <walk from="-67099789#3" to="-168937986"/>
    </person>
    <person id="ped34" depart="114.91">
        <walk from="188488046" to="147066248#6"/>
    </person>
    <person id="ped35" depart="118.29">
        <walk from="-4773029#1" to="554839170"/>
    </person>
    <person id="ped36" depart="121.67">
        <walk from="530309682#1" to="188386313#1"/>
    </person>
    <person id="ped37" depart="125.05">
        <walk from="389101396#0" to="22701813#1"/>
    </person>
    <person id="ped38" depart="128.43">
        <walk from="533508671#3" to="251884680"/>
    </person>
    <person id="ped39" depart="131.81">
        <walk from="147066248#2" to="110676320"/>
    </person>
    <person id="ped40" depart="135.19">
        <walk from="339201235#1" to="147029850#1"/>
    </person>
    <person id="ped41" depart="138.56">
        <walk from="35557143#0" to="532552036#4"/>
    </person>
    <person id="ped42" depart="141.94">
        <walk from="22972473#0" to="-546927052"/>
    </person>
    <person id="ped43" depart="145.32">
        <walk from="98695760#0" to="312744266#1"/>
    </person>
    <person id="ped44" depart="148.70">
        <walk from="-320462164#1" to="-195089288#2"/>
    </person>
    <person id="ped45" depart="152.08">
        <walk from="-35557143#0" to="376995426#0"/>
    </person>
    <person id="ped46" depart="155.46">
        <walk from="4612403#1" to="237221877#0"/>
    </person>
    <person id="ped47" depart="158.84">
        <walk from="-23017852#3" to="199847285#0"/>
    </person>
    <person id="ped48" depart="162.22">
        <walk from="98695756#1" to="320965764#1"/>
    </person>
    <person id="ped49" depart="165.60">
        <walk from="603971531" to="518072909"/>
    </person>
    <person id="ped50" depart="168.98">
        <walk from="-147029846" to="4402014#3"/>
    </person>
    <person id="ped51" depart="172.36">
        <walk from="411610105#4" to="327462543#0"/>
    </person>
    <person id="ped52" depart="175.74">
        <walk from="147066248#5" to="389101375"/>
    </person>
    <person id="ped53" depart="179.12">
        <walk from="-35557161#1" to="239922344"/>
    </person>
    <person id="ped54" depart="182.50">
        <walk from="24913267#0" to="58881955"/>
    </person>
    <person id="ped55" depart="185.88">
        <walk from="530309682#0" to="147066248#0"/>
    </person>
    <person id="ped56" depart="189.26">
        <walk from="305610351" to="-4610610#0"/>
    </person>
    <person id="ped57" depart="192.64">
        <walk from="533508671#0" to="519273957"/>
    </person>
    <person id="ped58" depart="196.02">
        <walk from="168935757#1" to="389101374#0"/>
    </person>
    <person id="ped59" depart="199.40">
        <walk from="373866703#1" to="-4402037#1"/>
    </person>
    <person id="ped60" depart="202.78">
        <walk from="4611696#4" to="327519010#0"/>
    </person>
    <person id="ped61" depart="206.16">
        <walk from="4611714#6" to="320965874"/>
    </person>
    <person id="ped62" depart="209.54">
        <walk from="-105747086" to="194177683"/>
    </person>
    <person id="ped63" depart="212.92">
        <walk from="-15973619#0" to="541763977#4"/>
    </person>
    <person id="ped64" depart="216.30">
        <walk from="530309685#0" to="47423542#3"/>
    </person>
    <person id="ped65" depart="219.68">
        <walk from="171423001#2" to="-22972470#2"/>
    </person>
    <person id="ped66" depart="223.06">
        <walk from="530309682#3" to="561021863#0"/>
    </person>
    <person id="ped67" depart="226.44">
        <walk from="-312744266#0" to="303084359#1"/>
    </person>
    <person id="ped68" depart="229.81">
        <walk from="-23755961#1" to="4611693#2"/>
    </person>
    <person id="ped69" depart="233.19">
        <walk from="4611707" to="-38347139#1"/>
    </person>
    <person id="ped70" depart="236.57">
        <walk from="292429062#1" to="327941678"/>
    </person>
    <person id="ped71" depart="239.95">
        <walk from="147066248#2" to="526093508#0"/>
    </person>
    <person id="ped72" depart="243.33">
        <walk from="237221877#1" to="-47755711#0"/>
    </person>
    <person id="ped73" depart="246.71">
        <walk from="327519010#0" to="4588215#1"/>
    </person>
    <person id="ped74" depart="250.09">
        <walk from="-4612403#0" to="176043821#2"/>
    </person>
    <person id="ped75" depart="253.47">
        <walk from="89901345" to="389101391"/>
    </person>
    <person id="ped76" depart="256.85">
        <walk from="24240246#0" to="320462164#1"/>
    </person>
    <person id="ped77" depart="260.23">
        <walk from="-375459781#1" to="-66071366#0"/>
    </person>
    <person id="ped78" depart="263.61">
        <walk from="195089278" to="35557161#3"/>
    </person>
    <person id="ped79" depart="266.99">
        <walk from="-81113584#2" to="-555247157"/>
    </person>
    <person id="ped80" depart="270.37">
        <walk from="-24242882#0" to="38211708#0"/>
    </person>
    <person id="ped81" depart="273.75">
        <walk from="-67099789#3" to="532647148#3"/>
    </person>
    <person id="ped82" depart="277.13">
        <walk from="515998817" to="-24242882#0"/>
    </person>
    <person id="ped83" depart="280.51">
        <walk from="105066718" to="411610099#0"/>
    </person>
    <person id="ped84" depart="283.89">
        <walk from="-505475202#1" to="-38912785"/>
    </person>
    <person id="ped85" depart="287.27">
        <walk from="551198296#2" to="346240653#0"/>
    </person>
    <person id="ped86" depart="290.65">
        <walk from="284514067" to="4611718#1"/>
    </person>
    <person id="ped87" depart="294.03">
        <walk from="465626386#1" to="-4611712"/>
    </person>
    <person id="ped88" depart="297.41">
        <walk from="-326116286#2" to="23755739#4"/>
    </person>
    <person id="ped89" depart="300.79">
        <walk from="237221880" to="260429505"/>
    </person>
    <person id="ped90" depart="304.17">
        <walk from="456400037#1" to="411610102#1"/>
    </person>
    <person id="ped91" depart="307.55">
        <walk from="68711084#0" to="-327730128"/>
    </person>
    <person id="ped92" depart="310.93">
        <walk from="23017852#3" to="195089288#0"/>
    </person>
    <person id="ped93" depart="314.31">
        <walk from="518072911#1" to="111833185#0"/>
    </person>
    <person id="ped94" depart="317.69">
        <walk from="-4611711#1" to="243854725#1"/>
    </person>
    <person id="ped95" depart="321.07">
        <walk from="237221877#0" to="154041918#1"/>
    </person>
    <person id="ped96" depart="324.44">
        <walk from="111833185#1" to="541320657"/>
    </person>
    <person id="ped97" depart="327.82">
        <walk from="24240304#5" to="518072911#1"/>
    </person>
    <person id="ped98" depart="331.20">
        <walk from="327941678" to="-196850606#3"/>
    </person>
    <person id="ped99" depart="334.58">
        <walk from="98695766" to="47423545#2"/>
    </person>
    <person id="ped100" depart="337.96">
        <walk from="596826985#0" to="541320665"/>
    </person>
    <person id="ped101" depart="341.34">
        <walk from="482327909" to="-4597320#0"/>
    </person>
    <person id="ped102" depart="344.72">
        <walk from="303084359#1" to="-505475202#0"/>
    </person>
    <person id="ped103" depart="348.10">
        <walk from="23017852#1" to="-22972470#3"/>
    </person>
    <person id="ped104" depart="351.48">
        <walk from="199847279" to="82488124#0"/>
    </person>
    <person id="ped105" depart="354.86">
        <walk from="147066248#2" to="4611718#1"/>
    </person>
    <person id="ped106" depart="358.24">
        <walk from="24913304#1" to="237221877#1"/>
    </person>
    <person id="ped107" depart="361.62">
        <walk from="591200195#0" to="98695756#0"/>
    </person>
    <person id="ped108" depart="365.00">
        <walk from="330965609" to="437325055#0"/>
    </person>
    <person id="ped109" depart="368.38">
        <walk from="-4588215#0" to="168935756"/>
    </person>
    <person id="ped110" depart="371.76">
        <walk from="596826982#1" to="346240659"/>
    </person>
    <person id="ped111" depart="375.14">
        <walk from="327519012#3" to="4597324#3"/>
    </person>
    <person id="ped112" depart="378.52">
        <walk from="-22972470#1" to="35454134"/>
    </person>
    <person id="ped113" depart="381.90">
        <walk from="312744242" to="482809615"/>
    </person>
    <person id="ped114" depart="385.28">
        <walk from="-4588217#0" to="596826979#0"/>
    </person>
    <person id="ped115" depart="388.66">
        <walk from="-292429062#0" to="-4611708#2"/>
    </person>
    <person id="ped116" depart="392.04">
        <walk from="36992116" to="411610103#0"/>
    </person>
    <person id="ped117" depart="395.42">
        <walk from="104786912#1" to="-375459781#0"/>
    </person>
    <person id="ped118" depart="398.80">
        <walk from="532547382#3" to="110670641#1"/>
    </person>
    <person id="ped119" depart="402.18">
        <walk from="36992116" to="375311158#3"/>
    </person>
    <person id="ped120" depart="405.56">
        <walk from="237221874#2" to="35454134"/>
    </person>
    <person id="ped121" depart="408.94">
        <walk from="320965760#0" to="551198296#1"/>
    </person>
    <person id="ped122" depart="412.32">
        <walk from="-4612429#1" to="43376693#0"/>
    </person>
    <person id="ped123" depart="415.69">
        <walk from="105066743" to="22701813#1"/>
    </person>
    <person id="ped124" depart="419.07">
        <walk from="411610100#1" to="169195795#0"/>
    </person>
    <person id="ped125" depart="422.45">
        <walk from="191556835#0" to="459996701"/>
    </person>
    <person id="ped126" depart="425.83">
        <walk from="-243854725#0" to="24997595"/>
    </person>
    <person id="ped127" depart="429.21">
        <walk from="98695760#1" to="98695756#1"/>
    </person>
    <person id="ped128" depart="432.59">
        <walk from="-243854725#1" to="-47935842"/>
    </person>
    <person id="ped129" depart="435.97">
        <walk from="147066248#2" to="550936317"/>
    </person>
    <person id="ped130" depart="439.35">
        <walk from="530309703#1" to="530309685#1"/>
    </person>
    <person id="ped131" depart="442.73">
        <walk from="199847247#0" to="-4588217#0"/>
    </person>
    <person id="ped132" depart="446.11">
        <walk from="47423544" to="43156728#0"/>
    </person>
    <person id="ped133" depart="449.49">
        <walk from="375311154#1" to="82488125#1"/>
    </person>
    <person id="ped134" depart="452.87">
        <walk from="389101395#0" to="-131577612#0"/>
    </person>
    <person id="ped135" depart="456.25">
        <walk from="465637607#2" to="168937986"/>
    </person>
    <person id="ped136" depart="459.63">
        <walk from="409506039#1" to="551198297#0"/>
    </person>
    <person id="ped137" depart="463.01">
        <walk from="-409506038#2" to="-35557161#7"/>
    </person>
    <person id="ped138" depart="466.39">
        <walk from="-335462921#8" to="328043767"/>
    </person>
    <person id="ped139" depart="469.77">
        <walk from="147228424#1" to="373292159#1"/>
    </person>
    <person id="ped140" depart="473.15">
        <walk from="43376693#2" to="-4612403#3"/>
    </person>
    <person id="ped141" depart="476.53">
        <walk from="38347139#1" to="147066248#0"/>
    </person>
    <person id="ped142" depart="479.91">
        <walk from="303084359#2" to="532647148#3"/>
    </person>
    <person id="ped143" depart="483.29">
        <walk from="47935842" to="-320462166#2"/>
    </person>
    <person id="ped144" depart="486.67">
        <walk from="237221880" to="154041909#2"/>
    </person>
    <person id="ped145" depart="490.05">
        <walk from="-111833185#0" to="4611711#0"/>
    </person>
    <person id="ped146" depart="493.43">
        <walk from="389101373#1" to="147029847"/>
    </person>
    <person id="ped147" depart="496.81">
        <walk from="4588224" to="327941679#1"/>
    </person>
    <person id="ped148" depart="500.19">
        <walk from="237221896" to="-147029844"/>
    </person>
    <person id="ped149" depart="503.57">
        <walk from="-24509317#2" to="530309703#4"/>
    </person>
    <person id="ped150" depart="506.94">
        <walk from="532647148#1" to="327735420#1"/>
    </person>
    <person id="ped151" depart="510.32">
        <walk from="47423545#0" to="346240666#2"/>
    </person>
    <person id="ped152" depart="513.70">
        <walk from="-43376693#1" to="-38347139#0"/>
    </person>
    <person id="ped153" depart="517.08">
        <walk from="171423002" to="532552710#0"/>
    </person>
    <person id="ped154" depart="520.46">
        <walk from="463898977" to="518072909"/>
    </person>
    <person id="ped155" depart="523.84">
        <walk from="532552710#0" to="-4773029#0"/>
    </person>
    <person id="ped156" depart="527.22">
        <walk from="111833185#1" to="-335462874"/>
    </person>
    <person id="ped157" depart="530.60">
        <walk from="4611714#8" to="532547381#0"/>
    </person>
    <person id="ped158" depart="533.98">
        <walk from="231716563#1" to="375312063#2"/>
    </person>
    <person id="ped159" depart="537.36">
        <walk from="-4588215#0" to="541864444#0"/>
    </person>
    <person id="ped160" depart="540.74">
        <walk from="518201430#0" to="622088435"/>
    </person>
    <person id="ped161" depart="544.12">
        <walk from="465626393" to="530309703#1"/>
    </person>
    <person id="ped162" depart="547.50">
        <walk from="-15973619#3" to="4588219#2"/>
    </person>
    <person id="ped163" depart="550.88">
        <walk from="195071822#0" to="541864444#1"/>
    </person>
    <person id="ped164" depart="554.26">
        <walk from="463898980#6" to="518201424"/>
    </person>
    <person id="ped165" depart="557.64">
        <walk from="465626393" to="147066248#5"/>
    </person>
    <person id="ped166" depart="561.02">
        <walk from="4611722#4" to="-339201247#0"/>
    </person>
    <person id="ped167" depart="564.40">
        <walk from="526093508#0" to="505475202#1"/>
    </person>
    <person id="ped168" depart="567.78">
        <walk from="-589906055" to="465637607#2"/>
    </person>
    <person id="ped169" depart="571.16">
        <walk from="25945724#1" to="169195795#8"/>
    </person>
    <person id="ped170" depart="574.54">
        <walk from="461526153" to="-66514478"/>
    </person>
    <person id="ped171" depart="577.92">
        <walk from="-15973619#15" to="-4611714#1"/>
    </person>
    <person id="ped172" depart="581.30">
        <walk from="194962998#1" to="518201424"/>
    </person>
    <person id="ped173" depart="584.68">
        <walk from="596826981#1" to="154041920"/>
    </person>
    <person id="ped174" depart="588.06">
        <walk from="389101377" to="22972473#1"/>
    </person>
    <person id="ped175" depart="591.44">
        <walk from="68647306#1" to="326116285#2"/>
    </person>
    <person id="ped176" depart="594.82">
        <walk from="551198297#1" to="-35557161#7"/>
    </person>
    <person id="ped177" depart="598.19">
        <walk from="596826985#2" to="-4610610#0"/>
    </person>
    <person id="ped178" depart="601.57">
        <walk from="596826980#0" to="147066248#3"/>
    </person>
    <person id="ped179" depart="604.95">
        <walk from="-339201247#1" to="23755961#2"/>
    </person>
    <person id="ped180" depart="608.33">
        <walk from="456400037#1" to="188386313#0"/>
    </person>
    <person id="ped181" depart="611.71">
        <walk from="373292159#3" to="317859977#0"/>
    </person>
    <person id="ped182" depart="615.09">
        <walk from="202817674#0" to="346240656#2"/>
    </person>
    <person id="ped183" depart="618.47">
        <walk from="121717657" to="43231842#1"/>
    </person>
    <person id="ped184" depart="621.85">
        <walk from="-109902441#0" to="541320664"/>
    </person>
    <person id="ped185" depart="625.23">
        <walk from="327519008#1" to="4401967"/>
    </person>
    <person id="ped186" depart="628.61">
        <walk from="4597320#0" to="411610099#2"/>
    </person>
    <person id="ped187" depart="631.99">
        <walk from="196850628" to="-23755961#2"/>
    </person>
    <person id="ped188" depart="635.37">
        <walk from="409507435#3" to="194983930#0"/>
    </person>
    <person id="ped189" depart="638.75">
        <walk from="188386313#0" to="481651817#1"/>
    </person>
    <person id="ped190" depart="642.13">
        <walk from="4402014#0" to="169195795#0"/>
    </person>
    <person id="ped191" depart="645.51">
        <walk from="175192743" to="23230845#0"/>
    </person>
    <person id="ped192" depart="648.89">
        <walk from="23017852#3" to="168515533#4"/>
    </person>
    <person id="ped193" depart="652.27">
        <walk from="-38347139#0" to="237221874#3"/>
    </person>
    <person id="ped194" depart="655.65">
        <walk from="551198297#2" to="411610104#1"/>
    </person>
    <person id="ped195" depart="659.03">
        <walk from="532555619#4" to="375311155"/>
    </person>
    <person id="ped196" depart="662.41">
        <walk from="169195795#1" to="327937650#0"/>
    </person>
    <person id="ped197" depart="665.79">
        <walk from="-105747086" to="15973619#3"/>
    </person>
    <person id="ped198" depart="669.17">
        <walk from="23755739#0" to="346240665#0"/>
    </person>
    <person id="ped199" depart="672.55">
        <walk from="389101395#2" to="260426116"/>
    </person>
    <person id="ped200" depart="675.93">
        <walk from="24240304#4" to="-505475202#0"/>
    </person>
    <person id="ped201" depart="679.31">
        <walk from="284514067" to="532555619#2"/>
    </person>
    <person id="ped202" depart="682.69">
        <walk from="463898977" to="-4597322#7"/>
    </person>
    <person id="ped203" depart="686.07">
        <walk from="-312744260#1" to="320420913#0"/>
    </person>
    <person id="ped204" depart="689.44">
        <walk from="38345682" to="195088658#1"/>
    </person>
    <person id="ped205" depart="692.82">
        <walk from="465637609" to="4597326"/>
    </person>
    <person id="ped206" depart="696.20">
        <walk from="411610102#0" to="-66071366#0"/>
    </person>
    <person id="ped207" depart="699.58">
        <walk from="-4611714#9" to="-15973619#3"/>
    </person>
    <person id="ped208" depart="702.96">
        <walk from="110670639#1" to="292429062#1"/>
    </person>
    <person id="ped209" depart="706.34">
        <walk from="482809611" to="-243854725#0"/>
    </person>
    <person id="ped210" depart="709.72">
        <walk from="236092221#2" to="380243143"/>
    </person>
    <person id="ped211" depart="713.10">
        <walk from="-4611714#2" to="42747981#0"/>
    </person>
    <person id="ped212" depart="716.48">
        <walk from="303084360#3" to="110670639#0"/>
    </person>
    <person id="ped213" depart="719.86">
        <walk from="389101396#0" to="-111833186#1"/>
    </person>
    <person id="ped214" depart="723.24">
        <walk from="4597326" to="4611710#2"/>
    </person>
    <person id="ped215" depart="726.62">
        <walk from="-335462921#7" to="237221887"/>
    </person>
    <person id="ped216" depart="730.00">
        <walk from="-4610524" to="591200195#2"/>
    </person>
    <person id="ped217" depart="733.38">
        <walk from="320462164#2" to="-196850606#3"/>
    </person>
    <person id="ped218" depart="736.76">
        <walk from="111833185#1" to="481651817#1"/>
    </person>
    <person id="ped219" depart="740.14">
        <walk from="24913304#3" to="463898980#5"/>
    </person>
    <person id="ped220" depart="743.52">
        <walk from="409507439#1" to="82488125#2"/>
    </person>
    <person id="ped221" depart="746.90">
        <walk from="36992117" to="569461260"/>
    </person>
    <person id="ped222" depart="750.28">
        <walk from="532547382#5" to="375311154#2"/>
    </person>
    <person id="ped223" depart="753.66">
        <walk from="4401967" to="312744261#0"/>
    </person>
    <person id="ped224" depart="757.04">
        <walk from="47423542#1" to="327937650#0"/>
    </person>
    <person id="ped225" depart="760.42">
        <walk from="532552036#3" to="4597322#2"/>
    </person>
    <person id="ped226" depart="763.80">
        <walk from="292429062#1" to="132600840#1"/>
    </person>
    <person id="ped227" depart="767.18">
        <walk from="110676321" to="389101373#1"/>
    </person>
    <person id="ped228" depart="770.56">
        <walk from="4611707" to="320462166#4"/>
    </person>
    <person id="ped229" depart="773.94">
        <walk from="376992747" to="153698380#0"/>
    </person>
    <person id="ped230" depart="777.32">
        <walk from="-25717694#1" to="15973619#2"/>
    </person>
    <person id="ped231" depart="780.69">
        <walk from="147228424#0" to="194066317#0"/>
    </person>
    <person id="ped232" depart="784.07">
        <walk from="327519010#1" to="-423570196"/>
    </person>
    <person id="ped233" depart="787.45">
        <walk from="-85255870#2" to="416174753"/>
    </person>
    <person id="ped234" depart="790.83">
        <walk from="43230873#1" to="-23017853"/>
    </person>
    <person id="ped235" depart="794.21">
        <walk from="231716566" to="327519012#4"/>
    </person>
    <person id="ped236" depart="797.59">
        <walk from="236868322#1" to="-47423328#2"/>
    </person>
    <person id="ped237" depart="800.97">
        <walk from="237221874#3" to="532647148#2"/>
    </person>
    <person id="ped238" depart="804.35">
        <walk from="35454134" to="424323348"/>
    </person>
    <person id="ped239" depart="807.73">
        <walk from="500570499" to="4611706#1"/>
    </person>
    <person id="ped240" depart="811.11">
        <walk from="199847282" to="-111833186#1"/>
    </person>
    <person id="ped241" depart="814.49">
        <walk from="196850610" to="4610525"/>
    </person>
    <person id="ped242" depart="817.87">
        <walk from="482809616" to="58881955"/>
    </person>
    <person id="ped243" depart="821.25">
        <walk from="237221874#1" to="4597324#3"/>
    </person>
    <person id="ped244" depart="824.63">
        <walk from="327735421" to="373292157#1"/>
    </person>
    <person id="ped245" depart="828.01">
        <walk from="-555247157" to="-555247155"/>
    </person>
    <person id="ped246" depart="831.39">
        <walk from="24215731" to="-15973619#9"/>
    </person>
    <person id="ped247" depart="834.77">
        <walk from="195088659#0" to="411610105#1"/>
    </person>
    <person id="ped248" depart="838.15">
        <walk from="231716555" to="-4588222#3"/>
    </person>
    <person id="ped249" depart="841.53">
        <walk from="264573135#0" to="-38347139#0"/>
    </person>
    <person id="ped250" depart="844.91">
        <walk from="375459782#0" to="-15973619#6"/>
    </person>
    <person id="ped251" depart="848.29">
        <walk from="221315511" to="339201247#1"/>
    </person>
    <person id="ped252" depart="851.67">
        <walk from="-15973619#7" to="389101379"/>
    </person>
    <person id="ped253" depart="855.05">
        <walk from="-409506039#1" to="25945725#0"/>
    </person>
    <person id="ped254" depart="858.43">
        <walk from="-196850606#3" to="199847279"/>
    </person>
    <person id="ped255" depart="861.81">
        <walk from="-47755711#0" to="194962997#1"/>
    </person>
    <person id="ped256" depart="865.19">
        <walk from="4611694" to="199847279"/>
    </person>
    <person id="ped257" depart="868.57">
        <walk from="459996701" to="47423542#3"/>
    </person>
    <person id="ped258" depart="871.95">
        <walk from="114667396" to="-293405874#2"/>
    </person>
    <person id="ped259" depart="875.32">
        <walk from="-15973619#0" to="327519010#0"/>
    </person>
    <person id="ped260" depart="878.70">
        <walk from="98695770" to="196850609#0"/>
    </person>
    <person id="ped261" depart="882.08">
        <walk from="389101392" to="4611714#9"/>
    </person>
    <person id="ped262" depart="885.46">
        <walk from="389101393#1" to="4610608"/>
    </person>
    <person id="ped263" depart="888.84">
        <walk from="569461258" to="-4611714#9"/>
    </person>
    <person id="ped264" depart="892.22">
        <walk from="-15973619#10" to="-4402037#1"/>
    </person>
    <person id="ped265" depart="895.60">
        <walk from="-38345682" to="411610099#0"/>
    </person>
    <person id="ped266" depart="898.98">
        <walk from="339201247#0" to="-533509622#3"/>
    </person>
    <person id="ped267" depart="902.36">
        <walk from="43051183" to="4611708#0"/>
    </person>
    <person id="ped268" depart="905.74">
        <walk from="-4597322#1" to="373866702#0"/>
    </person>
    <person id="ped269" depart="909.12">
        <walk from="4597324#3" to="-35557161#6"/>
    </person>
    <person id="ped270" depart="912.50">
        <walk from="47423328#0" to="596826980#3"/>
    </person>
    <person id="ped271" depart="915.88">
        <walk from="-339201247#0" to="-15973619#4"/>
    </person>
    <person id="ped272" depart="919.26">
        <walk from="176043821#2" to="411610104#1"/>
    </person>
    <person id="ped273" depart="922.64">
        <walk from="593893765" to="22972469"/>
    </person>
    <person id="ped274" depart="926.02">
        <walk from="43376477#1" to="-24913267#2"/>
    </person>
    <person id="ped275" depart="929.40">
        <walk from="416174749" to="376995426#0"/>
    </person>
    <person id="ped276" depart="932.78">
        <walk from="-330965609" to="4611712"/>
    </person>
    <person id="ped277" depart="936.16">
        <walk from="482809611" to="373292153"/>
    </person>
    <person id="ped278" depart="939.54">
        <walk from="-375459781#1" to="68711084#0"/>
    </person>
    <person id="ped279" depart="942.92">
        <walk from="4611716#1" to="196850607#2"/>
    </person>
    <person id="ped280" depart="946.30">
        <walk from="237221897" to="199847247#3"/>
    </person>
    <person id="ped281" depart="949.68">
        <walk from="312744262#0" to="195089288#2"/>
    </person>
    <person id="ped282" depart="953.06">