<?xml version="1.0" encoding="UTF-8"?>

<!-- generated on 09/02/18 20:30:10 by SUMO netconvert Version 0.32.0
<?xml version="1.0" encoding="UTF-8"?>

<configuration xmlns:xsi="http://www.w3.org/2001/XMLSchema-instance" xsi:noNamespaceSchemaLocation="http://sumo.dlr.de/xsd/netconvertConfiguration.xsd">

    <input>
        <type-files value="D:\hiwi\sumo-0.32.0\data\typemap\osmNetconvert.typ.xml,D:\hiwi\sumo-0.32.0\data\typemap\osmNetconvertUrbanDe.typ.xml,D:\hiwi\sumo-0.32.0\data\typemap\osmNetconvertPedestrians.typ.xml"/>
        <osm-files value="osm_bbox.osm.xml"/>
    </input>

    <output>
        <output-file value="D:\hiwi\SUMO-Pedestrian-task\osmWizard-Simulation\2018-09-02-20-30-04\osm.net.xml"/>
        <output.street-names value="true"/>
        <output.original-names value="true"/>
    </output>

    <projection>
        <proj.utm value="true"/>
    </projection>

    <tls_building>
        <tls.discard-simple value="true"/>
        <tls.join value="true"/>
        <tls.guess-signals value="true"/>
        <tls.default-type value="actuated"/>
    </tls_building>

    <ramp_guessing>
        <ramps.guess value="true"/>
    </ramp_guessing>

    <processing>
        <geometry.remove value="true"/>
        <roundabouts.guess value="true"/>
        <junctions.join value="true"/>
        <junctions.corner-detail value="5"/>
        <crossings.guess value="true"/>
    </processing>

    <report>
        <verbose value="true"/>
    </report>

</configuration>
-->

<net version="0.27" junctionCornerDetail="5" walkingareas="true" xmlns:xsi="http://www.w3.org/2001/XMLSchema-instance" xsi:noNamespaceSchemaLocation="http://sumo.dlr.de/xsd/net_file.xsd">

    <location netOffset="-389627.38,-5818514.03" convBoundary="0.00,0.00,2512.95,1576.61" origBoundary="13.371515,52.505595,13.412727,52.524072" projParameter="+proj=utm +zone=33 +ellps=WGS84 +datum=WGS84 +units=m +no_defs"/>

    <type id="highway.bridleway" priority="1" numLanes="1" speed="2.78" allow="pedestrian" oneway="1" width="2.00"/>
    <type id="highway.bus_guideway" priority="1" numLanes="1" speed="8.33" allow="bus" oneway="1"/>
    <type id="highway.cycleway" priority="1" numLanes="1" speed="5.56" allow="bicycle" oneway="0" width="1.00"/>
    <type id="highway.footway" priority="1" numLanes="1" speed="2.78" allow="pedestrian" oneway="1" width="2.00"/>
    <type id="highway.ford" priority="1" numLanes="1" speed="2.78" allow="army" oneway="0"/>
    <type id="highway.living_street" priority="3" numLanes="1" speed="2.78" disallow="tram rail_urban rail rail_electric ship" oneway="0"/>
    <type id="highway.motorway" priority="13" numLanes="2" speed="27.78" allow="private emergency authority army vip passenger hov taxi bus coach delivery truck trailer motorcycle evehicle custom1 custom2" oneway="1"/>
    <type id="highway.motorway_link" priority="12" numLanes="1" speed="16.67" allow="private emergency authority army vip passenger hov taxi bus coach delivery truck trailer motorcycle evehicle custom1 custom2" oneway="1"/>
    <type id="highway.path" priority="1" numLanes="1" speed="2.78" allow="bicycle pedestrian" oneway="1" width="2.00"/>
    <type id="highway.pedestrian" priority="1" numLanes="1" speed="2.78" allow="pedestrian" oneway="1" width="2.00"/>
    <type id="highway.primary" priority="9" numLanes="2" speed="13.89" disallow="tram rail_urban rail rail_electric pedestrian ship" oneway="0" sidewalkWidth="3.00"/>
    <type id="highway.primary_link" priority="8" numLanes="1" speed="13.89" disallow="tram rail_urban rail rail_electric pedestrian ship" oneway="0" sidewalkWidth="3.00"/>
    <type id="highway.raceway" priority="14" numLanes="2" speed="83.33" allow="vip" oneway="0"/>
    <type id="highway.residential" priority="4" numLanes="1" speed="13.89" disallow="tram rail_urban rail rail_electric pedestrian ship" oneway="0" sidewalkWidth="2.00"/>
    <type id="highway.secondary" priority="7" numLanes="2" speed="13.89" disallow="tram rail_urban rail rail_electric pedestrian ship" oneway="0" sidewalkWidth="3.00"/>
    <type id="highway.secondary_link" priority="6" numLanes="1" speed="13.89" disallow="tram rail_urban rail rail_electric pedestrian ship" oneway="0" sidewalkWidth="3.00"/>
    <type id="highway.service" priority="2" numLanes="1" speed="5.56" allow="delivery bicycle pedestrian" oneway="0"/>
    <type id="highway.services" priority="1" numLanes="1" speed="8.33" disallow="tram rail_urban rail rail_electric ship" oneway="0"/>
    <type id="highway.stairs" priority="1" numLanes="1" speed="1.39" allow="pedestrian" oneway="1" width="2.00"/>
    <type id="highway.step" priority="1" numLanes="1" speed="1.39" allow="pedestrian" oneway="1" width="2.00"/>
    <type id="highway.steps" priority="1" numLanes="1" speed="1.39" allow="pedestrian" oneway="1" width="2.00"/>
    <type id="highway.tertiary" priority="6" numLanes="1" speed="13.89" disallow="tram rail_urban rail rail_electric pedestrian ship" oneway="0" sidewalkWidth="3.00"/>
    <type id="highway.tertiary_link" priority="5" numLanes="1" speed="13.89" disallow="tram rail_urban rail rail_electric pedestrian ship" oneway="0" sidewalkWidth="2.00"/>
    <type id="highway.track" priority="1" numLanes="1" speed="5.56" disallow="tram rail_urban rail rail_electric ship" oneway="0"/>
    <type id="highway.trunk" priority="11" numLanes="2" speed="13.89" disallow="tram rail_urban rail rail_electric bicycle pedestrian ship" oneway="0"/>
    <type id="highway.trunk_link" priority="10" numLanes="1" speed="13.89" disallow="tram rail_urban rail rail_electric bicycle pedestrian ship" oneway="0"/>
    <type id="highway.unclassified" priority="5" numLanes="1" speed="13.89" disallow="tram rail_urban rail rail_electric pedestrian ship" oneway="0" sidewalkWidth="2.00"/>
    <type id="highway.unsurfaced" priority="1" numLanes="1" speed="8.33" disallow="tram rail_urban rail rail_electric ship" oneway="0"/>
    <type id="railway.light_rail" priority="15" numLanes="1" speed="27.78" allow="rail_urban" oneway="1"/>
    <type id="railway.preserved" priority="15" numLanes="1" speed="27.78" allow="rail" oneway="1"/>
    <type id="railway.rail" priority="15" numLanes="1" speed="83.33" allow="rail rail_electric" oneway="1"/>
    <type id="railway.subway" priority="15" numLanes="1" speed="27.78" allow="rail_urban" oneway="1"/>
    <type id="railway.tram" priority="15" numLanes="1" speed="13.89" allow="tram" oneway="1"/>

    <edge id=":1001074214_0" function="internal">
        <lane id=":1001074214_0_0" index="0" disallow="tram rail_urban rail rail_electric pedestrian ship" speed="13.89" length="5.01" shape="1515.11,545.25 1520.11,545.57"/>
        <lane id=":1001074214_0_1" index="1" disallow="tram rail_urban rail rail_electric pedestrian ship" speed="13.89" length="5.01" shape="1514.90,548.55 1519.90,548.87"/>
        <lane id=":1001074214_0_2" index="2" disallow="tram rail_urban rail rail_electric pedestrian ship" speed="13.89" length="5.01" shape="1514.69,551.84 1519.69,552.16"/>
    </edge>
    <edge id=":1001074214_w0" function="walkingarea">
        <lane id=":1001074214_w0_0" index="0" allow="pedestrian" speed="1.00" length="4.27" width="3.00" shape="1520.22,543.88 1520.41,540.88 1519.00,539.28 1517.00,539.16 1515.42,540.56 1515.22,543.56"/>
    </edge>
    <edge id=":1001074218_0" function="internal">
        <lane id=":1001074218_0_0" index="0" disallow="tram rail_urban rail rail_electric pedestrian ship" speed="13.89" length="4.98" shape="1544.28,547.10 1549.25,547.43"/>
        <lane id=":1001074218_0_1" index="1" disallow="tram rail_urban rail rail_electric pedestrian ship" speed="13.89" length="4.98" shape="1544.07,550.40 1549.03,550.72"/>
        <lane id=":1001074218_0_2" index="2" disallow="tram rail_urban rail rail_electric pedestrian ship" speed="13.89" length="4.98" shape="1543.86,553.69 1548.81,554.01"/>
    </edge>
    <edge id=":1001074218_w0" function="walkingarea">
        <lane id=":1001074218_w0_0" index="0" allow="pedestrian" speed="1.00" length="4.29" width="3.00" shape="1549.36,545.73 1549.56,542.74 1548.22,541.15 1546.23,540.95 1544.57,542.41 1544.38,545.41"/>
    </edge>
    <edge id=":1041979356_0" function="internal">
        <lane id=":1041979356_0_0" index="0" disallow="tram rail_urban rail rail_electric pedestrian ship" speed="8.33" length="6.10" shape="1318.02,621.06 1311.94,620.48"/>
    </edge>
    <edge id=":1041979356_1" function="internal">
        <lane id=":1041979356_1_0" index="0" allow="delivery bicycle pedestrian" speed="6.95" length="9.72" shape="1318.02,621.06 1316.81,620.40 1316.03,618.71 1315.68,616.00 1315.76,612.25"/>
    </edge>
    <edge id=":1041979356_2" function="internal">
        <lane id=":1041979356_2_0" index="0" disallow="tram rail_urban rail rail_electric pedestrian ship" speed="8.33" length="4.82" shape="1318.02,621.06 1316.87,620.11 1316.55,619.25 1317.04,618.47 1318.36,617.78"/>
    </edge>
    <edge id=":1041979356_3" function="internal">
        <lane id=":1041979356_3_0" index="0" allow="delivery bicycle pedestrian" speed="6.95" length="6.82" shape="1312.24,617.19 1313.64,616.99 1314.70,616.10 1315.40,614.52 1315.76,612.25"/>
    </edge>
    <edge id=":1041979356_4" function="internal">
        <lane id=":1041979356_4_0" index="0" disallow="tram rail_urban rail rail_electric pedestrian ship" speed="8.33" length="6.15" shape="1312.24,617.19 1318.36,617.78"/>
    </edge>
    <edge id=":1041979356_5" function="internal">
        <lane id=":1041979356_5_0" index="0" disallow="tram rail_urban rail rail_electric pedestrian ship" speed="8.33" length="4.82" shape="1312.24,617.19 1313.40,618.12 1313.73,618.98 1313.25,619.77 1311.94,620.48"/>
    </edge>
    <edge id=":1041979356_c0" function="crossing" crossingEdges="-375459782#0 375459782#0">
        <lane id=":1041979356_c0_0" index="0" allow="pedestrian" speed="1.00" length="6.50" width="4.00" shape="1316.53,615.98 1315.87,622.45"/>
    </edge>
    <edge id=":1041979356_w0" function="walkingarea">
        <lane id=":1041979356_w0_0" index="0" allow="pedestrian" speed="1.00" length="4.19" width="4.00" shape="1311.79,622.17 1311.62,624.16 1317.64,624.74 1317.85,622.75 1313.88,622.24"/>
    </edge>
    <edge id=":1041979356_w1" function="walkingarea">
        <lane id=":1041979356_w1_0" index="0" allow="pedestrian" speed="1.00" length="4.10" width="4.00" shape="1314.54,615.78 1318.53,616.09 1318.74,614.10 1317.35,612.37 1314.16,612.14 1312.56,613.51 1312.39,615.50"/>
    </edge>
    <edge id=":1041979358_0" function="internal">
        <lane id=":1041979358_0_0" index="0" disallow="tram rail_urban rail rail_electric pedestrian ship" speed="6.95" length="6.78" shape="1235.01,598.21 1232.72,598.23 1231.05,598.69 1229.99,599.57 1229.56,600.88"/>
    </edge>
    <edge id=":1041979358_1" function="internal">
        <lane id=":1041979358_1_0" index="0" disallow="tram rail_urban rail rail_electric pedestrian ship" speed="6.95" length="9.80" shape="1235.01,598.21 1231.31,597.74 1228.71,596.96 1227.20,595.85 1226.78,594.43"/>
    </edge>
    <edge id=":1041979358_2" function="internal">
        <lane id=":1041979358_2_0" index="0" disallow="tram rail_urban rail rail_electric pedestrian ship" speed="8.33" length="6.20" shape="1230.07,594.70 1229.56,600.88"/>
    </edge>
    <edge id=":1041979358_3" function="internal">
        <lane id=":1041979358_3_0" index="0" disallow="tram rail_urban rail rail_electric pedestrian ship" speed="8.33" length="2.41" shape="1230.07,594.70 1229.15,595.87 1228.29,596.21"/>
    </edge>
    <edge id=":1041979358_6" function="internal">
        <lane id=":1041979358_6_0" index="0" speed="8.33" length="2.41" shape="1228.29,596.21 1227.50,595.73 1226.78,594.43"/>
    </edge>
    <edge id=":1041979358_4" function="internal">
        <lane id=":1041979358_4_0" index="0" disallow="tram rail_urban rail rail_electric pedestrian ship" speed="8.33" length="6.20" shape="1226.27,600.61 1226.78,594.43"/>
    </edge>
    <edge id=":1041979358_5" function="internal">
        <lane id=":1041979358_5_0" index="0" disallow="tram rail_urban rail rail_electric pedestrian ship" speed="8.33" length="2.41" shape="1226.27,600.61 1227.19,599.45 1228.05,599.10"/>
    </edge>
    <edge id=":1041979358_7" function="internal">
        <lane id=":1041979358_7_0" index="0" speed="8.33" length="2.41" shape="1228.05,599.10 1228.84,599.58 1229.56,600.88"/>
    </edge>
    <edge id=":1041979358_c0" function="crossing" crossingEdges="22972470#3 -22972470#3">
        <lane id=":1041979358_c0_0" index="0" allow="pedestrian" speed="1.00" length="6.50" width="4.00" shape="1225.02,596.29 1231.50,596.83"/>
    </edge>
    <edge id=":1041979358_w0" function="walkingarea">
        <lane id=":1041979358_w0_0" index="0" allow="pedestrian" speed="1.00" length="4.10" width="4.00" shape="1231.25,601.02 1233.25,601.19 1234.90,599.80 1235.13,596.61 1233.76,595.01 1231.76,594.84 1231.33,598.82"/>
    </edge>
    <edge id=":1041979358_w1" function="walkingarea">
        <lane id=":1041979358_w1_0" index="0" allow="pedestrian" speed="1.00" length="4.28" width="4.00" shape="1224.86,598.28 1225.09,594.29 1223.09,594.12 1222.58,600.31 1224.58,600.47"/>
    </edge>
    <edge id=":1141824933_w0" function="walkingarea">
        <lane id=":1141824933_w0_0" index="0" allow="pedestrian" speed="1.00" length="4.02" width="2.00" shape="1372.80,503.54 1370.81,503.34 1369.17,504.70 1368.99,506.70 1370.42,508.33 1372.42,508.45"/>
    </edge>
    <edge id=":1141824951_w0" function="walkingarea">
        <lane id=":1141824951_w0_0" index="0" allow="pedestrian" speed="1.00" length="4.38" width="2.00" shape="1326.72,503.07 1326.89,501.08 1324.31,498.56 1322.49,499.39 1321.61,500.63 1321.44,502.62"/>
    </edge>
    <edge id=":1141824957_w0" function="walkingarea">
        <lane id=":1141824957_w0_0" index="0" allow="pedestrian" speed="1.00" length="2.52" width="2.00" shape="1304.92,462.33 1306.72,461.46 1307.16,461.12 1308.52,459.65 1303.56,459.25 1302.98,457.22 1303.19,456.25 1304.18,456.33 1305.96,457.46"/>
    </edge>
    <edge id=":1141824960_w0" function="walkingarea">
        <lane id=":1141824960_w0_0" index="0" allow="pedestrian" speed="1.00" length="4.03" width="2.00" shape="1283.91,499.41 1284.08,497.42 1282.70,495.80 1280.70,495.62 1280.32,500.65 1282.32,500.78 1283.45,499.42 1283.07,499.51 1282.77,499.69 1282.54,499.96 1282.39,500.33"/>
    </edge>
    <edge id=":1141824970_w0" function="walkingarea">
        <lane id=":1141824970_w0_0" index="0" allow="pedestrian" speed="1.00" length="5.37" width="2.00" shape="1363.20,506.18 1363.38,504.19 1358.12,501.23 1356.92,502.83 1356.63,503.60 1356.46,505.60"/>
    </edge>
    <edge id=":1204940509_0" function="internal">
        <lane id=":1204940509_0_0" index="0" disallow="tram rail_urban rail rail_electric pedestrian ship" speed="8.33" length="9.53" shape="1313.14,721.84 1303.63,721.24"/>
    </edge>
    <edge id=":1204940509_1" function="internal">
        <lane id=":1204940509_1_0" index="0" allow="delivery bicycle pedestrian" speed="5.56" length="4.84" shape="1313.14,721.84 1310.24,721.11 1308.88,719.87"/>
    </edge>
    <edge id=":1204940509_2" function="internal">
        <lane id=":1204940509_2_0" index="0" disallow="tram rail_urban rail rail_electric pedestrian ship" speed="8.33" length="2.41" shape="1313.14,721.84 1311.96,720.94 1311.60,720.09"/>
    </edge>
    <edge id=":1204940509_9" function="internal">
        <lane id=":1204940509_9_0" index="0" speed="5.56" length="7.58" shape="1308.88,719.87 1308.31,719.34 1307.36,716.54 1307.38,712.70"/>
    </edge>
    <edge id=":1204940509_10" function="internal">
        <lane id=":1204940509_10_0" index="0" speed="8.33" length="2.41" shape="1311.60,720.09 1312.06,719.29 1313.35,718.54"/>
    </edge>
    <edge id=":1204940509_3" function="internal">
        <lane id=":1204940509_3_0" index="0" disallow="tram rail_urban rail rail_electric pedestrian ship" speed="5.56" length="6.91" shape="1310.66,713.08 1310.60,715.40 1311.02,717.08 1311.94,718.13 1313.35,718.54"/>
    </edge>
    <edge id=":1204940509_4" function="internal">
        <lane id=":1204940509_4_0" index="0" disallow="tram rail_urban rail rail_electric pedestrian ship" speed="5.56" length="12.05" shape="1310.66,713.08 1309.84,716.80 1308.40,719.39 1306.33,720.88 1303.63,721.24"/>
    </edge>
    <edge id=":1204940509_5" function="internal">
        <lane id=":1204940509_5_0" index="0" allow="delivery bicycle pedestrian" speed="2.78" length="4.82" shape="1310.66,713.08 1309.70,714.22 1308.83,714.53 1308.06,714.02 1307.38,712.70"/>
    </edge>
    <edge id=":1204940509_6" function="internal">
        <lane id=":1204940509_6_0" index="0" allow="delivery bicycle pedestrian" speed="5.56" length="6.97" shape="1303.84,717.95 1305.15,717.69 1306.18,716.73 1306.92,715.06 1307.38,712.70"/>
    </edge>
    <edge id=":1204940509_7" function="internal">
        <lane id=":1204940509_7_0" index="0" disallow="tram rail_urban rail rail_electric pedestrian ship" speed="8.33" length="9.52" shape="1303.84,717.95 1313.35,718.54"/>
    </edge>
    <edge id=":1204940509_8" function="internal">
        <lane id=":1204940509_8_0" index="0" disallow="tram rail_urban rail rail_electric pedestrian ship" speed="8.33" length="2.41" shape="1303.84,717.95 1305.02,718.85 1305.38,719.70"/>
    </edge>
    <edge id=":1204940509_11" function="internal">
        <lane id=":1204940509_11_0" index="0" speed="8.33" length="2.41" shape="1305.38,719.70 1304.92,720.50 1303.63,721.24"/>
    </edge>
    <edge id=":1204940509_c0" function="crossing" crossingEdges="23755961#1 -23755961#1">
        <lane id=":1204940509_c0_0" index="0" allow="pedestrian" speed="1.00" length="6.50" width="4.00" shape="1311.45,716.82 1311.05,723.31"/>
    </edge>
    <edge id=":1204940509_w0" function="walkingarea">
        <lane id=":1204940509_w0_0" index="0" allow="pedestrian" speed="1.00" length="6.48" width="4.00" shape="1303.52,722.94 1303.39,724.93 1312.92,725.53 1313.04,723.53 1313.05,723.43 1309.05,723.19"/>
    </edge>
    <edge id=":1204940509_w1" function="walkingarea">
        <lane id=":1204940509_w1_0" index="0" allow="pedestrian" speed="1.00" length="5.44" width="4.00" shape="1309.45,716.70 1313.44,716.95 1313.45,716.85 1313.57,714.85 1312.25,713.27 1309.07,712.90 1308.97,712.88 1305.79,712.51 1304.08,714.25 1303.95,716.25"/>
    </edge>
    <edge id=":1204940520_0" function="internal">
        <lane id=":1204940520_0_0" index="0" disallow="tram rail_urban rail rail_electric pedestrian ship" speed="8.33" length="9.47" shape="1353.43,698.63 1352.68,708.07"/>
    </edge>
    <edge id=":1204940520_1" function="internal">
        <lane id=":1204940520_1_0" index="0" allow="delivery bicycle pedestrian" speed="5.56" length="4.71" shape="1353.43,698.63 1352.67,701.38 1351.40,702.74"/>
    </edge>
    <edge id=":1204940520_2" function="internal">
        <lane id=":1204940520_2_0" index="0" disallow="tram rail_urban rail rail_electric pedestrian ship" speed="8.33" length="2.41" shape="1353.43,698.63 1352.50,699.80 1351.65,700.14"/>
    </edge>
    <edge id=":1204940520_9" function="internal">
        <lane id=":1204940520_9_0" index="0" speed="5.56" length="7.36" shape="1351.40,702.74 1350.92,703.25 1348.17,704.23 1344.43,704.32"/>
    </edge>
    <edge id=":1204940520_10" function="internal">
        <lane id=":1204940520_10_0" index="0" speed="8.33" length="2.41" shape="1351.65,700.14 1350.86,699.66 1350.14,698.36"/>
    </edge>
    <edge id=":1204940520_3" function="internal">
        <lane id=":1204940520_3_0" index="0" disallow="tram rail_urban rail rail_electric pedestrian ship" speed="5.56" length="6.78" shape="1344.70,701.03 1346.99,701.02 1348.65,700.58 1349.70,699.69 1350.14,698.36"/>
    </edge>
    <edge id=":1204940520_4" function="internal">
        <lane id=":1204940520_4_0" index="0" disallow="tram rail_urban rail rail_electric pedestrian ship" speed="5.56" length="12.04" shape="1344.70,701.03 1348.37,701.73 1350.93,703.14 1352.36,705.25 1352.68,708.07"/>
    </edge>
    <edge id=":1204940520_5" function="internal">
        <lane id=":1204940520_5_0" index="0" allow="delivery bicycle pedestrian" speed="2.78" length="4.82" shape="1344.70,701.03 1345.87,701.95 1346.21,702.81 1345.73,703.60 1344.43,704.32"/>
    </edge>
    <edge id=":1204940520_6" function="internal">
        <lane id=":1204940520_6_0" index="0" allow="delivery bicycle pedestrian" speed="5.56" length="6.79" shape="1349.39,707.82 1349.17,706.45 1348.27,705.41 1346.69,704.70 1344.43,704.32"/>
    </edge>
    <edge id=":1204940520_7" function="internal">
        <lane id=":1204940520_7_0" index="0" disallow="tram rail_urban rail rail_electric pedestrian ship" speed="8.33" length="9.48" shape="1349.39,707.82 1350.14,698.36"/>
    </edge>
    <edge id=":1204940520_8" function="internal">
        <lane id=":1204940520_8_0" index="0" disallow="tram rail_urban rail rail_electric pedestrian ship" speed="8.33" length="2.41" shape="1349.39,707.82 1350.31,706.65 1351.16,706.30"/>
    </edge>
    <edge id=":1204940520_11" function="internal">
        <lane id=":1204940520_11_0" index="0" speed="8.33" length="2.41" shape="1351.16,706.30 1351.95,706.77 1352.68,708.07"/>
    </edge>
    <edge id=":1204940520_c0" function="crossing" crossingEdges="35557161#7 -35557161#7">
        <lane id=":1204940520_c0_0" index="0" allow="pedestrian" speed="1.00" length="6.50" width="4.00" shape="1348.38,700.23 1354.86,700.75"/>
    </edge>
    <edge id=":1204940520_w0" function="walkingarea">
        <lane id=":1204940520_w0_0" index="0" allow="pedestrian" speed="1.00" length="6.43" width="4.00" shape="1354.38,708.20 1356.37,708.35 1357.12,698.93 1355.12,698.77 1354.70,702.75"/>
    </edge>
    <edge id=":1204940520_w1" function="walkingarea">
        <lane id=":1204940520_w1_0" index="0" allow="pedestrian" speed="1.00" length="5.38" width="4.00" shape="1348.22,702.22 1348.54,698.23 1348.44,698.22 1346.45,698.06 1344.83,699.43 1344.57,702.62 1344.56,702.72 1344.29,705.91 1345.70,707.53 1347.70,707.69"/>
    </edge>
    <edge id=":1206481791_0" function="internal">
        <lane id=":1206481791_0_0" index="0" allow="delivery bicycle pedestrian" speed="6.95" length="13.16" shape="1040.23,1098.69 1036.60,1099.26 1034.41,1101.19 1032.62,1103.75 1030.22,1106.21"/>
    </edge>
    <edge id=":1206481791_1" function="internal">
        <lane id=":1206481791_1_0" index="0" disallow="tram rail_urban rail rail_electric pedestrian ship" speed="8.33" length="12.89" shape="1040.23,1098.69 1027.39,1097.56"/>
    </edge>
    <edge id=":1206481791_2" function="internal">
        <lane id=":1206481791_2_0" index="0" disallow="tram rail_urban rail rail_electric pedestrian ship" speed="8.33" length="2.41" shape="1040.23,1098.69 1039.06,1097.77 1038.70,1096.92"/>
    </edge>
    <edge id=":1206481791_9" function="internal">
        <lane id=":1206481791_9_0" index="0" speed="8.33" length="2.41" shape="1038.70,1096.92 1039.17,1096.13 1040.47,1095.39"/>
    </edge>
    <edge id=":1206481791_3" function="internal">
        <lane id=":1206481791_3_0" index="0" disallow="tram rail_urban rail rail_electric pedestrian ship" speed="8.33" length="12.84" shape="1027.68,1094.27 1040.47,1095.39"/>
    </edge>
    <edge id=":1206481791_4" function="internal">
        <lane id=":1206481791_4_0" index="0" allow="delivery bicycle pedestrian" speed="6.95" length="8.29" shape="1027.68,1094.27 1034.25,1095.58 1035.41,1096.66"/>
    </edge>
    <edge id=":1206481791_5" function="internal">
        <lane id=":1206481791_5_0" index="0" disallow="tram rail_urban rail rail_electric pedestrian ship" speed="8.33" length="2.41" shape="1027.68,1094.27 1028.84,1095.20 1029.18,1096.06"/>
    </edge>
    <edge id=":1206481791_10" function="internal">
        <lane id=":1206481791_10_0" index="0" speed="6.95" length="12.84" shape="1035.41,1096.66 1036.87,1098.01 1035.52,1101.55 1030.22,1106.21"/>
    </edge>
    <edge id=":1206481791_11" function="internal">
        <lane id=":1206481791_11_0" index="0" speed="8.33" length="2.41" shape="1029.18,1096.06 1028.69,1096.84 1027.39,1097.56"/>
    </edge>
    <edge id=":1206481791_6" function="internal">
        <lane id=":1206481791_6_0" index="0" disallow="tram rail_urban rail rail_electric pedestrian ship" speed="6.95" length="6.01" shape="1028.35,1103.49 1027.39,1097.56"/>
    </edge>
    <edge id=":1206481791_7" function="internal">
        <lane id=":1206481791_7_0" index="0" disallow="tram rail_urban rail rail_electric pedestrian ship" speed="6.95" length="15.20" shape="1028.35,1103.49 1031.32,1102.30 1033.55,1099.38 1036.21,1096.49 1040.47,1095.39"/>
    </edge>
    <edge id=":1206481791_8" function="internal">
        <lane id=":1206481791_8_0" index="0" allow="delivery bicycle pedestrian" speed="5.56" length="4.82" shape="1028.35,1103.49 1029.84,1103.47 1030.64,1103.92 1030.77,1104.83 1030.22,1106.21"/>
    </edge>
    <edge id=":1206481791_c0" function="crossing" crossingEdges="-4588217#0 4588217#0">
        <lane id=":1206481791_c0_0" index="0" allow="pedestrian" speed="1.00" length="6.50" width="4.00" shape="1038.58,1093.66 1038.12,1100.14"/>
    </edge>
    <edge id=":1206481791_w0" function="walkingarea">
        <lane id=":1206481791_w0_0" index="0" allow="pedestrian" speed="1.00" length="8.28" width="4.00" shape="1027.24,1099.25 1027.06,1101.24 1028.46,1101.89 1028.24,1105.09 1029.28,1104.91 1031.15,1107.51 1039.97,1102.38 1040.11,1100.38 1040.12,1100.28 1036.13,1100.00"/>
    </edge>
    <edge id=":1206481791_w1" function="walkingarea">
        <lane id=":1206481791_w1_0" index="0" allow="pedestrian" speed="1.00" length="8.65" width="4.00" shape="1036.59,1093.51 1040.59,1093.70 1040.73,1091.70 1028.00,1090.58 1027.83,1092.57"/>
    </edge>
    <edge id=":1206481808_0" function="internal">
        <lane id=":1206481808_0_0" index="0" disallow="tram rail_urban rail rail_electric pedestrian ship" speed="6.95" length="10.72" shape="1001.66,1103.28 1000.56,1101.61 998.63,1098.73 996.61,1095.98 995.27,1094.72"/>
    </edge>
    <edge id=":1206481808_1" function="internal">
        <lane id=":1206481808_1_0" index="0" disallow="tram rail_urban rail rail_electric pedestrian ship" speed="6.95" length="18.16" shape="1001.66,1103.28 998.88,1098.09 998.83,1094.55 1001.53,1092.67 1006.96,1092.44"/>
    </edge>
    <edge id=":1206481808_2" function="internal">
        <lane id=":1206481808_2_0" index="0" allow="delivery bicycle pedestrian" speed="5.56" length="4.82" shape="1001.66,1103.28 1001.62,1101.80 1002.05,1100.98 1002.96,1100.84 1004.35,1101.37"/>
    </edge>
    <edge id=":1206481808_3" function="internal">
        <lane id=":1206481808_3_0" index="0" allow="delivery bicycle pedestrian" speed="6.95" length="9.13" shape="1006.67,1095.73 1004.05,1095.86 1002.78,1096.85 1002.89,1098.69 1004.35,1101.37"/>
    </edge>
    <edge id=":1206481808_4" function="internal">
        <lane id=":1206481808_4_0" index="0" disallow="tram rail_urban rail rail_electric pedestrian ship" speed="8.33" length="11.44" shape="1006.67,1095.73 995.27,1094.72"/>
    </edge>
    <edge id=":1206481808_5" function="internal">
        <lane id=":1206481808_5_0" index="0" disallow="tram rail_urban rail rail_electric pedestrian ship" speed="8.33" length="2.41" shape="1006.67,1095.73 1005.51,1094.80 1005.17,1093.94"/>
    </edge>
    <edge id=":1206481808_9" function="internal">
        <lane id=":1206481808_9_0" index="0" speed="8.33" length="2.41" shape="1005.17,1093.94 1005.66,1093.15 1006.96,1092.44"/>
    </edge>
    <edge id=":1206481808_6" function="internal">
        <lane id=":1206481808_6_0" index="0" disallow="tram rail_urban rail rail_electric pedestrian ship" speed="8.33" length="11.44" shape="995.56,1091.44 1006.96,1092.44"/>
    </edge>
    <edge id=":1206481808_7" function="internal">
        <lane id=":1206481808_7_0" index="0" allow="delivery bicycle pedestrian" speed="6.95" length="3.26" shape="995.56,1091.44 996.88,1092.13 998.14,1093.37"/>
    </edge>
    <edge id=":1206481808_8" function="internal">
        <lane id=":1206481808_8_0" index="0" disallow="tram rail_urban rail rail_electric pedestrian ship" speed="8.33" length="2.41" shape="995.56,1091.44 996.72,1092.37 997.06,1093.23"/>
    </edge>
    <edge id=":1206481808_10" function="internal">
        <lane id=":1206481808_10_0" index="0" speed="6.95" length="10.14" shape="998.14,1093.37 998.79,1094.01 1001.28,1097.09 1004.35,1101.37"/>
    </edge>
    <edge id=":1206481808_11" function="internal">
        <lane id=":1206481808_11_0" index="0" speed="8.33" length="2.41" shape="997.06,1093.23 996.58,1094.01 995.27,1094.72"/>
    </edge>
    <edge id=":1206481808_c0" function="crossing" crossingEdges="-4588217#1 4588217#1">
        <lane id=":1206481808_c0_0" index="0" allow="pedestrian" speed="1.00" length="6.50" width="4.00" shape="1005.11,1090.67 1004.54,1097.15"/>
    </edge>
    <edge id=":1206481808_w0" function="walkingarea">
        <lane id=":1206481808_w0_0" index="0" allow="pedestrian" speed="1.00" length="6.69" width="4.00" shape="995.13,1096.42 994.95,1098.41 1000.34,1104.19 1002.98,1102.37 1003.04,1102.28 1005.67,1100.47 1006.35,1099.41 1006.52,1097.42 1006.53,1097.32 1002.55,1096.97"/>
    </edge>
    <edge id=":1206481808_w1" function="walkingarea">
        <lane id=":1206481808_w1_0" index="0" allow="pedestrian" speed="1.00" length="7.74" width="4.00" shape="1003.12,1090.50 1007.11,1090.75 1007.29,1088.76 995.89,1087.75 995.71,1089.74"/>
    </edge>
    <edge id=":1208647642_w0" function="walkingarea">
        <lane id=":1208647642_w0_0" index="0" allow="pedestrian" speed="1.00" length="4.03" width="2.00" shape="1373.00,1320.40 1373.18,1318.41 1368.16,1317.99 1368.02,1319.99 1369.38,1321.59 1371.37,1321.77 1372.54,1320.40 1372.16,1320.49 1371.85,1320.67 1371.61,1320.95 1371.45,1321.31"/>
    </edge>
    <edge id=":1208647678_w0" function="walkingarea">