<?xml version="1.0" encoding="UTF-8"?>

<!-- generated on 09/02/18 20:30:11 by SUMO polyconvert Version 0.32.0
<?xml version="1.0" encoding="UTF-8"?>

<configuration xmlns:xsi="http://www.w3.org/2001/XMLSchema-instance" xsi:noNamespaceSchemaLocation="http://sumo.dlr.de/xsd/polyconvertConfiguration.xsd">

    <input>
        <net-file value="D:\hiwi\SUMO-Pedestrian-task\osmWizard-Simulation\2018-09-02-20-30-04\osm.net.xml"/>
        <osm-files value="osm_bbox.osm.xml"/>
        <osm.keep-full-type value="true"/>
        <type-file value="D:\hiwi\sumo-0.32.0\data\typemap\osmPolyconvert.typ.xml"/>
    </input>

    <output>
        <output-file value="D:\hiwi\SUMO-Pedestrian-task\osmWizard-Simulation\2018-09-02-20-30-04\osm.poly.xml"/>
    </output>

    <processing>
        <poi-layer-offset value="5"/>
    </processing>

    <report>
        <verbose value="true"/>
    </report>

</configuration>
-->

<additional xmlns:xsi="http://www.w3.org/2001/XMLSchema-instance" xsi:noNamespaceSchemaLocation="http://sumo.dlr.de/xsd/additional_file.xsd">
    <location netOffset="-389627.38,-5818514.03" convBoundary="-639.13,-3133.18,5656.33,4745.16" origBoundary="13.365448,52.477280,13.456602,52.548335" projParameter="+proj=utm +zone=33 +ellps=WGS84 +datum=WGS84 +units=m +no_defs"/>

    <poly id="102979498" type="landuse.civic_admin" color="194,194,130" fill="1" layer="-3.00" shape="481.36,1380.83 480.67,1312.22 476.32,1311.86 371.82,1302.68 360.54,1301.70 316.06,1297.79 280.16,1294.63 263.09,1289.27 249.00,1338.66 247.75,1343.07 244.68,1353.82 232.53,1366.09 78.64,1369.69 82.88,1537.51 76.70,1537.66 70.10,1537.81 62.43,1537.99 51.17,1538.24 40.91,1538.49 25.85,1538.75 14.07,1539.10 14.49,1557.98 14.80,1569.39 15.57,1598.67 17.20,1660.38 17.74,1680.70 17.96,1689.05 37.38,1706.84 70.22,1733.73 122.16,1776.58 133.13,1785.34 139.07,1788.90 143.42,1791.43 153.42,1795.29 162.96,1777.31 177.71,1749.13 182.68,1736.64 185.91,1709.78 188.54,1690.03 257.21,1702.60 339.35,1700.80 437.64,1697.85 454.02,1697.89 451.48,1711.69 461.51,1711.55 480.35,1713.02 504.87,1714.92 506.54,1692.29 509.81,1692.55 526.49,1693.91 554.24,1696.02 551.47,1685.75 541.79,1650.29 532.13,1612.43 524.95,1614.31 525.33,1616.12 508.14,1620.65 470.17,1613.95 461.62,1614.25 463.92,1587.33 465.55,1567.77 466.78,1552.96 467.11,1549.24 466.29,1541.72 472.29,1479.79 473.05,1473.78 473.92,1465.08 475.66,1445.30 478.62,1411.43 479.13,1405.49 480.12,1394.16 481.36,1380.83"/>
    <poly id="106844905" type="landuse.commercial" color="209,209,204" fill="1" layer="-3.00" shape="302.21,591.02 298.43,630.99 290.60,655.89 265.08,648.43 270.11,627.90 264.10,620.87 267.17,588.21 288.67,589.94 293.96,590.33 302.21,591.02"/>
    <poly id="11548677" type="waterway.riverbank" color="181,209,209" fill="0" layer="-4.00" shape="2531.90,797.52 2502.02,780.47 2369.32,710.63 2361.81,703.61 2351.40,696.08 2348.70,694.12 2332.31,682.27 2290.50,653.81 2238.30,627.61 2225.96,623.02 2203.88,615.00 2197.22,611.58 2194.82,610.67 2173.19,606.08 2110.14,598.33 2064.60,600.43 2043.82,602.28 2039.55,603.07 2037.02,604.04 2033.96,605.88 2031.02,608.26 2028.91,610.22 2027.32,612.16 2026.06,613.93 2007.63,649.41 1999.98,664.06 1886.03,859.96 1880.50,869.73 1827.24,975.93 1812.89,1018.05 1774.69,1113.24 1766.65,1129.55 1688.50,1280.93 1683.78,1318.08 1655.76,1423.81 1637.24,1474.39 1638.87,1478.07 1636.34,1482.70 1623.19,1503.80 1621.40,1503.60 1612.32,1519.84 1558.29,1559.21 1464.83,1671.72 1452.56,1686.60 1440.44,1701.01 1381.72,1772.39 1384.38,1774.62 1374.82,1786.35 1372.12,1784.17 1369.85,1788.19 1364.46,1790.58"/>
    <poly id="120456814" type="amenity.university" color="237,199,199" fill="1" layer="-1.00" shape="1191.06,1571.32 1191.19,1572.12 1228.27,1575.31 1234.89,1575.91 1262.12,1578.25 1266.56,1523.98 1284.83,1525.37 1293.44,1526.05 1296.37,1526.40 1306.08,1527.12 1305.50,1533.22 1304.15,1545.55 1303.71,1550.87 1303.69,1551.26 1305.85,1551.51 1305.14,1556.92 1305.10,1557.18 1303.92,1568.96 1292.51,1567.89 1291.32,1580.87 1330.08,1584.04 1331.21,1584.17 1336.59,1525.10 1336.96,1520.14 1337.99,1510.27 1340.57,1475.27 1439.68,1484.08 1452.37,1397.82 1459.96,1311.86 1309.04,1298.71 1304.44,1350.22 1295.03,1490.98 1287.90,1490.29 1270.01,1489.92 1236.27,1486.87 1214.43,1484.99 1213.65,1494.04 1206.12,1493.39 1201.26,1549.77 1201.19,1550.55 1199.71,1550.43 1179.79,1548.72 1179.15,1556.14 1187.15,1556.83 1187.27,1555.43 1191.55,1555.80 1191.43,1557.22 1192.24,1557.30 1191.07,1570.85 1191.06,1571.32"/>
    <poly id="121673258" type="landuse.construction" color="194,194,130" fill="1" layer="-3.00" shape="1770.90,1179.76 1768.86,1184.80 1766.93,1183.45 1762.12,1189.98 1778.66,1202.25 1754.81,1239.22 1741.28,1235.12 1728.79,1238.07 1724.04,1248.02 1730.00,1281.73 1733.92,1293.50 1752.74,1294.96 1749.84,1298.66 1763.05,1301.45 1775.64,1305.48 1788.66,1310.31 1812.29,1324.87 1839.78,1285.45 1860.33,1300.33 1842.70,1325.36 1956.73,1393.07 2039.98,1256.84 2053.58,1225.01 1980.49,1179.04 1901.25,1128.76 1895.53,1126.46 1888.72,1125.74 1882.37,1128.59 1861.21,1156.38 1801.32,1115.54 1796.37,1113.29 1792.85,1118.73 1804.16,1127.92 1800.39,1134.55 1802.16,1136.14 1799.58,1138.65 1795.15,1140.29 1790.86,1139.67 1766.85,1171.80 1770.13,1175.62 1770.90,1179.76"/>
    <poly id="121673264" type="landuse.construction" color="194,194,130" fill="1" layer="-3.00" shape="2152.71,922.19 2062.56,1031.39 2023.95,1008.11 1970.40,966.29 2000.93,924.35 2029.86,888.83 2066.24,846.11 2094.35,870.34 2152.71,922.19"/>
    <poly id="121674885" type="building.yes" color="255,230,230" fill="1" layer="-1.00" shape="1654.34,923.17 1645.01,918.60 1642.17,924.38 1651.50,928.95 1652.94,926.00 1654.34,923.17"/>
    <poly id="121674886" type="building.yes" color="255,230,230" fill="1" layer="-1.00" shape="1680.03,774.37 1680.14,774.14 1679.61,773.73 1679.39,773.05 1679.59,772.43 1679.98,772.03 1679.86,771.83 1703.86,755.06 1711.34,765.74 1706.14,769.27 1706.67,770.01 1706.82,772.00 1706.39,772.83 1712.52,775.83 1706.84,787.50 1680.03,774.37"/>
    <poly id="128396193" type="building.apartments" color="255,230,230" fill="1" layer="-1.00" shape="1804.75,511.77 1802.17,544.12 1779.94,542.37 1782.52,509.97 1790.63,510.62 1790.44,512.98 1797.03,513.50 1797.22,511.17 1804.75,511.77"/>
    <poly id="128396194" type="building.residential" color="255,230,230" fill="1" layer="-1.00" shape="1797.22,511.17 1804.75,511.77 1820.79,513.06 1823.71,475.94 1815.27,475.37 1815.10,477.71 1808.68,477.30 1808.77,474.77 1800.33,474.08 1797.22,511.17"/>
    <poly id="131487805" type="building.yes" color="255,230,230" fill="1" layer="-1.00" shape="439.03,1054.35 403.54,1051.07 404.82,1036.25 404.96,1034.64 405.10,1033.02 405.24,1031.40 440.86,1034.44 439.13,1053.24 439.03,1054.35"/>
    <poly id="131487807" type="building.government" color="255,230,230" fill="1" layer="-1.00" shape="293.60,1235.03 292.60,1245.91 306.84,1246.88 309.19,1219.25 295.17,1218.07 294.16,1229.01 291.72,1228.78 291.44,1231.79 291.15,1234.80 293.60,1235.03"/>
    <poly id="131487807#1" type="tourism.museum" color="207,245,201" fill="1" layer="-2.00" shape="293.60,1235.03 292.60,1245.91 306.84,1246.88 309.19,1219.25 295.17,1218.07 294.16,1229.01 291.72,1228.78 291.44,1231.79 291.15,1234.80 293.60,1235.03"/>
    <poly id="131487809" type="building.house" color="255,230,230" fill="1" layer="-1.00" shape="298.96,1261.50 298.62,1265.09 296.86,1284.72 296.59,1287.40 308.33,1288.53 311.05,1262.43 308.99,1262.18 305.18,1261.92 298.96,1261.50"/>
    <poly id="131487810" type="amenity.embassy" color="237,199,199" fill="1" layer="-1.00" shape="458.89,1286.37 457.21,1286.22 456.34,1290.33 454.23,1290.79 453.70,1288.07 447.98,1289.29 450.00,1298.65 455.67,1297.46 455.41,1296.35 455.89,1296.40 455.96,1300.06 457.74,1300.17 457.65,1301.23 429.53,1298.57 430.89,1282.85 458.98,1285.32 458.89,1286.37"/>
    <poly id="131487810#1" type="building.yes" color="255,230,230" fill="1" layer="-1.00" shape="458.89,1286.37 457.21,1286.22 456.34,1290.33 454.23,1290.79 453.70,1288.07 447.98,1289.29 450.00,1298.65 455.67,1297.46 455.41,1296.35 455.89,1296.40 455.96,1300.06 457.74,1300.17 457.65,1301.23 429.53,1298.57 430.89,1282.85 458.98,1285.32 458.89,1286.37"/>
    <poly id="131487810#2" type="landuse.village_green" color="242,242,204" fill="1" layer="-3.00" shape="458.89,1286.37 457.21,1286.22 456.34,1290.33 454.23,1290.79 453.70,1288.07 447.98,1289.29 450.00,1298.65 455.67,1297.46 455.41,1296.35 455.89,1296.40 455.96,1300.06 457.74,1300.17 457.65,1301.23 429.53,1298.57 430.89,1282.85 458.98,1285.32 458.89,1286.37"/>
    <poly id="131487813" type="building.house" color="255,230,230" fill="1" layer="-1.00" shape="306.84,1246.88 309.86,1247.13 312.78,1247.38 320.17,1248.01 316.06,1297.79 280.16,1294.63 288.01,1263.89 292.60,1245.91 306.84,1246.88"/>
    <poly id="137118022" type="amenity.school" color="237,199,199" fill="1" layer="-1.00" shape="719.31,767.46 702.49,763.42 677.98,755.89 678.17,755.23 647.66,745.99 640.06,771.27 641.68,771.80 640.05,776.57 638.63,776.06 638.46,776.78 639.05,776.94 632.04,801.13 634.24,801.83 631.48,812.14 628.60,811.32 622.41,832.35 625.43,833.21 622.27,843.59 618.91,842.68 613.68,860.49 612.64,861.38 662.50,876.25 682.78,882.19 696.20,886.04 701.01,870.23 699.60,869.80 701.20,864.27 703.04,858.17 704.52,858.55 709.28,842.83 711.05,836.04 651.40,818.94 654.27,809.12 714.98,826.92 731.25,770.96 719.31,767.46"/>
    <poly id="138554284" type="landuse.commercial" color="209,209,204" fill="1" layer="-3.00" shape="913.57,701.33 897.97,699.91 897.92,700.49 894.76,700.32 894.02,709.96 893.59,709.92 892.25,727.45 892.67,727.48 891.92,737.26 891.31,745.19 889.90,763.60 888.91,776.26 902.49,777.21 902.51,776.67 905.16,776.87 905.12,777.40 906.33,777.48 908.67,777.70 910.56,777.85 910.62,777.30 913.00,777.50 912.96,778.04 925.30,779.03 963.05,781.94 965.81,782.15 965.76,782.71 1004.70,785.73 1004.74,785.22 1007.26,785.42 1008.51,769.93 1010.44,747.12 1001.65,746.27 997.56,745.87 965.94,742.69 965.93,743.04 959.07,742.53 942.39,741.33 939.89,741.13 935.33,740.77 937.14,716.75 912.66,714.77 913.57,701.33"/>
    <poly id="138554286" type="landuse.commercial" color="209,209,204" fill="1" layer="-3.00" shape="906.62,1074.19 943.39,1077.06 944.21,1077.10 944.77,1077.15 944.75,1077.50 947.17,1077.68 949.91,1077.89 949.95,1077.55 958.14,1078.19 958.09,1078.68 975.01,1079.83 975.04,1079.50 976.35,1079.57 980.11,1079.88 983.80,1080.17 1013.53,1082.58 1044.89,1084.93 1047.73,1083.24 1048.60,1071.17 1049.41,1059.93 1049.88,1053.45 1050.30,1047.69 1050.48,1044.92 1050.87,1039.04 1051.41,1030.83 1053.18,1009.24 1016.74,1006.26 1010.18,1005.73 1005.77,1005.37 1000.95,1004.98 985.33,1003.70 968.84,1002.35 964.18,1001.97 962.17,1001.78 960.40,1001.63 958.29,1001.46 956.51,1001.31 956.35,1003.24 956.08,1006.40 955.88,1008.82 955.29,1015.98 954.13,1025.63 953.74,1028.89 953.15,1034.73 946.77,1034.31 946.39,1039.68 908.98,1036.72 892.05,1035.37 869.81,1033.58 868.24,1053.05 878.94,1053.90 882.46,1054.18 886.91,1054.56 886.76,1058.63 885.64,1072.51 906.62,1074.19"/>
    <poly id="138554287" type="landuse.commercial" color="209,209,204" fill="1" layer="-3.00" shape="881.23,873.51 904.97,875.58 923.93,877.23 935.09,878.19 956.06,880.02 961.58,880.49 969.98,881.19 987.54,882.64 997.71,883.48 1020.13,885.33 1039.43,886.92 1062.81,888.85 1063.99,873.81 1065.69,852.13 1066.97,835.88 1068.16,820.65 1068.78,812.68 1061.40,812.05 1046.20,810.74 1017.91,808.30 1003.33,807.04 999.46,806.71 993.01,806.33 981.85,805.50 974.34,804.93 967.28,804.40 956.82,803.62 949.05,803.04 946.93,802.88 936.40,802.10 932.31,801.79 923.61,801.06 898.67,798.94 887.10,797.97 884.09,836.68 881.23,873.51"/>
    <poly id="143296211" type="landuse.commercial" color="209,209,204" fill="1" layer="-3.00" shape="1341.53,911.53 1345.64,857.31 1383.35,860.19 1403.65,861.65 1404.20,852.74 1404.50,849.84 1402.63,849.68 1403.37,839.25 1403.85,829.55 1437.53,832.18 1436.89,841.83 1434.81,864.71 1433.52,877.81 1432.81,888.70 1432.55,892.51 1432.34,905.14 1432.26,914.54 1343.61,913.35 1342.34,912.97 1341.53,911.53"/>
    <poly id="145095631" type="building.scaffolding" color="255,230,230" fill="1" layer="-1.00" shape="1749.20,1140.22 1746.05,1148.38 1737.14,1144.96 1740.29,1136.80 1749.20,1140.22"/>
    <poly id="14582095" type="building.commercial" color="255,230,230" fill="1" layer="-1.00" shape="359.01,543.49 352.41,543.01 352.28,544.64 350.83,544.52 349.69,558.73 351.10,558.85 350.97,560.44 335.00,559.16 333.88,573.12 356.49,574.93 357.30,564.84 359.01,543.49"/>
    <poly id="14582098" type="building.commercial" color="255,230,230" fill="1" layer="-1.00" shape="298.80,538.89 311.28,539.88 309.90,557.12 297.29,556.11 296.13,570.02 333.88,573.12 335.00,559.16 322.46,558.16 323.86,540.74 336.45,541.74 337.58,527.76 331.28,527.21 299.91,524.97 298.80,538.89"/>
    <poly id="146594546" type="building.yes" color="255,230,230" fill="1" layer="-1.00" shape="1336.27,1055.80 1343.28,1056.36 1342.65,1064.14 1347.40,1064.51 1347.12,1068.05 1350.99,1068.35 1350.38,1075.99 1353.62,1076.24 1352.36,1092.06 1352.34,1092.30 1351.59,1092.24 1350.18,1109.82 1350.11,1110.70 1345.46,1110.32 1331.30,1109.20 1331.33,1108.80 1330.86,1108.76 1331.49,1100.81 1332.65,1100.90 1333.54,1090.59 1334.40,1079.04 1333.22,1078.95 1333.83,1071.30 1334.59,1071.36 1334.90,1067.55 1334.48,1067.51 1335.13,1059.37 1335.56,1059.40 1335.66,1058.05 1335.82,1056.09 1336.24,1056.11 1336.27,1055.80"/>
    <poly id="146824851" type="building.yes" color="255,230,230" fill="1" layer="-1.00" shape="1591.44,764.22 1573.40,736.37 1573.18,736.51 1570.07,731.70 1570.55,726.37 1570.79,726.38 1572.01,713.10 1571.72,713.08 1572.10,708.82 1571.18,708.75 1571.95,700.50 1572.82,700.68 1573.18,696.73 1577.25,696.97 1577.28,696.03 1585.51,696.52 1585.46,697.47 1589.66,697.71 1589.51,698.41 1591.11,697.66 1591.03,697.38 1596.88,693.69 1597.07,694.06 1605.01,688.96 1604.88,688.65 1611.56,684.44 1616.00,696.52 1609.07,700.59 1615.13,709.83 1619.75,706.70 1621.83,712.33 1622.80,715.04 1619.42,717.00 1624.26,724.41 1625.95,723.60 1631.10,737.53 1626.67,740.49 1615.48,747.91 1591.44,764.22"/>
    <poly id="146824852" type="building.yes" color="255,230,230" fill="1" layer="-1.00" shape="1439.46,806.73 1441.10,786.78 1456.78,788.06 1456.35,793.42 1454.09,820.84 1446.32,820.21 1438.40,819.56 1439.46,806.73"/>
    <poly id="147030009" type="building.yes" color="255,230,230" fill="1" layer="-1.00" shape="1605.02,619.91 1604.62,623.56 1579.99,621.60 1580.11,620.25 1573.49,619.84 1574.19,612.21 1573.17,610.99 1573.41,608.15 1574.66,607.03 1575.81,594.49 1617.37,597.69 1617.64,594.94 1636.84,596.37 1636.64,599.18 1635.46,615.03 1635.19,618.41 1622.62,617.60 1622.36,621.12 1605.02,619.91"/>
    <poly id="147030010" type="building.yes" color="255,230,230" fill="1" layer="-1.00" shape="1732.56,718.51 1733.05,719.22 1732.87,719.36 1729.20,714.08 1724.64,717.26 1725.36,718.28 1719.65,722.26 1713.11,712.95 1718.12,709.47 1717.38,708.45 1732.28,698.07 1733.04,699.07 1737.82,695.75 1737.03,694.76 1751.76,684.51 1752.44,685.55 1757.58,681.98 1756.82,680.98 1771.87,670.50 1779.14,680.81 1773.97,684.41 1775.55,686.67 1773.86,687.85 1774.74,689.12 1771.47,691.40 1771.97,692.13 1771.79,692.25 1769.70,689.31 1768.10,687.00 1763.59,690.16 1764.26,691.18 1754.81,697.76 1756.38,700.02 1754.72,701.18 1755.57,702.48 1752.30,704.75 1752.80,705.48 1752.62,705.60 1748.86,700.39 1744.31,703.56 1745.02,704.58 1735.06,711.52 1736.63,713.78 1734.94,714.95 1735.83,716.23 1732.56,718.51"/>
    <poly id="147065881" type="building.yes" color="255,230,230" fill="1" layer="-1.00" shape="1645.58,911.60 1645.03,912.73 1643.99,912.21 1642.20,915.84 1643.27,916.37 1642.72,917.48 1645.01,918.60 1654.34,923.17 1656.03,919.74 1657.22,917.31 1645.58,911.60"/>
    <poly id="147065882" type="building.yes" color="255,230,230" fill="1" layer="-1.00" shape="1662.98,905.62 1645.87,897.24 1642.98,903.09 1648.46,905.77 1660.10,911.48 1661.49,908.65 1662.98,905.62"/>
    <poly id="147065883" type="building.yes" color="255,230,230" fill="1" layer="-1.00" shape="1651.50,928.95 1642.17,924.38 1639.78,923.21 1636.86,929.14 1648.57,934.88 1649.98,932.02 1651.50,928.95"/>
    <poly id="147065884" type="building.yes" color="255,230,230" fill="1" layer="-1.00" shape="1677.32,876.51 1653.89,865.04 1651.08,870.73 1674.51,882.20 1675.86,879.46 1677.32,876.51"/>
    <poly id="147065885" type="building.residential" color="255,230,230" fill="1" layer="-1.00" shape="1680.14,870.79 1668.29,864.98 1667.23,867.14 1661.86,864.51 1663.01,862.17 1656.79,859.13 1653.89,865.04 1677.32,876.51 1678.88,873.34 1680.14,870.79"/>
    <poly id="147065886" type="building.yes" color="255,230,230" fill="1" layer="-1.00" shape="1665.83,899.82 1648.72,891.45 1645.87,897.24 1662.98,905.62 1664.21,903.12 1665.83,899.82"/>
    <poly id="147065887" type="building.yes" color="255,230,230" fill="1" layer="-1.00" shape="1697.17,835.70 1676.24,825.44 1673.93,824.31 1671.14,829.99 1694.37,841.38 1695.70,838.69 1697.17,835.70"/>
    <poly id="147065888" type="building.yes" color="255,230,230" fill="1" layer="-1.00" shape="1665.40,841.64 1662.52,847.47 1685.76,858.87 1687.09,856.17 1688.64,853.02 1665.40,841.64"/>
    <poly id="147065890" type="building.yes" color="255,230,230" fill="1" layer="-1.00" shape="1674.51,882.20 1651.08,870.73 1648.12,876.75 1650.61,877.97 1671.55,888.22 1673.02,885.23 1674.51,882.20"/>
    <poly id="147065891" type="building.yes" color="255,230,230" fill="1" layer="-1.00" shape="1700.07,829.68 1688.48,824.01 1693.35,814.12 1684.06,809.56 1676.24,825.44 1697.17,835.70 1698.50,833.00 1700.07,829.68"/>
    <poly id="147065892" type="building.yes" color="255,230,230" fill="1" layer="-1.00" shape="1691.49,847.22 1668.26,835.84 1665.40,841.64 1688.64,853.02 1690.00,850.26 1691.49,847.22"/>
    <poly id="147065893" type="building.yes" color="255,230,230" fill="1" layer="-1.00" shape="1685.76,858.87 1662.52,847.47 1659.61,853.39 1665.84,856.44 1671.21,859.07 1682.85,864.77 1684.16,862.12 1685.76,858.87"/>
    <poly id="147065894" type="building.yes" color="255,230,230" fill="1" layer="-1.00" shape="1671.55,888.22 1650.61,877.97 1647.74,883.80 1651.56,885.67 1668.68,894.06 1670.26,890.83 1671.55,888.22"/>
    <poly id="147065895" type="building.yes" color="255,230,230" fill="1" layer="-1.00" shape="1668.68,894.06 1651.56,885.67 1648.72,891.45 1665.83,899.82 1667.07,897.31 1668.68,894.06"/>
    <poly id="147065897" type="building.yes" color="255,230,230" fill="1" layer="-1.00" shape="1660.10,911.48 1648.46,905.77 1645.58,911.60 1657.22,917.31 1658.66,914.39 1660.10,911.48"/>
    <poly id="147065898" type="building.yes" color="255,230,230" fill="1" layer="-1.00" shape="1700.07,829.68 1709.17,811.21 1711.47,806.53 1702.32,802.05 1690.59,796.30 1684.06,809.56 1693.35,814.12 1688.48,824.01 1700.07,829.68"/>
    <poly id="147065899" type="building.yes" color="255,230,230" fill="1" layer="-1.00" shape="1694.37,841.38 1671.14,829.99 1668.26,835.84 1691.49,847.22 1692.86,844.45 1694.37,841.38"/>
    <poly id="147082781" type="landuse.grass" color="194,194,130" fill="1" layer="-3.00" shape="1227.79,756.26 1229.61,726.96 1235.65,727.33 1239.39,728.96 1242.27,731.35 1245.31,734.73 1247.88,739.59 1248.63,745.35 1249.75,753.96 1250.03,762.58 1235.07,761.37 1233.65,759.33 1231.02,757.05 1227.79,756.26"/>
    <poly id="147082781#1" type="tourism.attraction" color="207,245,201" fill="1" layer="-2.00" shape="1227.79,756.26 1229.61,726.96 1235.65,727.33 1239.39,728.96 1242.27,731.35 1245.31,734.73 1247.88,739.59 1248.63,745.35 1249.75,753.96 1250.03,762.58 1235.07,761.37 1233.65,759.33 1231.02,757.05 1227.79,756.26"/>
    <poly id="147082782" type="landuse.grass" color="194,194,130" fill="1" layer="-3.00" shape="1226.09,771.02 1223.46,799.77 1228.49,800.93 1234.31,799.76 1240.02,795.41 1245.35,785.39 1248.04,775.61 1249.60,767.59 1234.01,766.57 1232.69,768.78 1230.00,770.74 1226.09,771.02"/>
    <poly id="147082782#1" type="tourism.attraction" color="207,245,201" fill="1" layer="-2.00" shape="1226.09,771.02 1223.46,799.77 1228.49,800.93 1234.31,799.76 1240.02,795.41 1245.35,785.39 1248.04,775.61 1249.60,767.59 1234.01,766.57 1232.69,768.78 1230.00,770.74 1226.09,771.02"/>
    <poly id="147082783" type="landuse.grass" color="194,194,130" fill="1" layer="-3.00" shape="1245.04,726.63 1283.80,729.32 1286.14,731.99 1283.04,736.05 1278.22,740.34 1272.26,742.83 1264.08,743.29 1256.83,740.46 1250.86,734.50 1245.04,726.63"/>
    <poly id="147082783#1" type="tourism.attraction" color="207,245,201" fill="1" layer="-2.00" shape="1245.04,726.63 1283.80,729.32 1286.14,731.99 1283.04,736.05 1278.22,740.34 1272.26,742.83 1264.08,743.29 1256.83,740.46 1250.86,734.50 1245.04,726.63"/>
    <poly id="147082784" type="amenity.parking_space" color="237,199,199" fill="1" layer="-1.00" shape="1198.01,990.92 1205.07,991.44 1210.80,913.94 1203.75,913.43 1198.01,990.92"/>
    <poly id="147228425" type="leisure.playground" color="207,245,201" fill="1" layer="-2.00" shape="1709.30,702.23 1705.56,704.39 1703.42,695.83 1696.98,683.72 1690.36,687.21 1675.55,658.49 1672.32,659.99 1672.86,655.97 1674.74,630.48 1677.71,630.92 1757.03,645.01 1772.85,656.76 1709.30,702.23"/>
    <poly id="147237713" type="building.yes" color="255,230,230" fill="1" layer="-1.00" shape="1435.42,642.05 1430.15,641.50 1419.63,640.71 1386.91,638.27 1367.71,636.84 1366.49,653.09 1362.93,700.26 1361.93,713.62 1371.10,714.31 1400.36,716.50 1422.55,718.16 1429.20,718.73 1435.42,642.05"/>
    <poly id="147237714" type="building.yes" color="255,230,230" fill="1" layer="-1.00" shape="782.38,699.42 772.04,732.63 777.82,734.19 784.15,712.67 800.44,717.56 799.51,720.48 806.77,722.58 811.70,707.49 782.59,698.81 782.38,699.42"/>
    <poly id="148870945" type="leisure.playground" color="207,245,201" fill="1" layer="-2.00" shape="1771.85,723.85 1863.81,658.67 1856.23,650.81 1853.73,652.56 1831.05,668.61 1765.91,714.64 1771.85,723.85"/>
    <poly id="150625182" type="amenity.embassy" color="237,199,199" fill="1" layer="-1.00" shape="292.90,602.17 284.82,603.55 283.85,604.44 284.29,601.35 285.96,595.45 286.10,594.93 285.57,594.90 280.70,594.61 280.17,594.58 280.10,595.09 279.27,600.99 270.97,600.20 269.39,617.77 271.92,618.05 276.97,618.58 275.85,634.62 289.92,635.83 290.44,630.50 290.79,626.99 292.64,605.25 292.90,602.17"/>
    <poly id="150625182#1" type="building.yes" color="255,230,230" fill="1" layer="-1.00" shape="292.90,602.17 284.82,603.55 283.85,604.44 284.29,601.35 285.96,595.45 286.10,594.93 285.57,594.90 280.70,594.61 280.17,594.58 280.10,595.09 279.27,600.99 270.97,600.20 269.39,617.77 271.92,618.05 276.97,618.58 275.85,634.62 289.92,635.83 290.44,630.50 290.79,626.99 292.64,605.25 292.90,602.17"/>
    <poly id="157099365" type="building.yes" color="255,230,230" fill="1" layer="-1.00" shape="1312.82,1029.16 1277.21,1026.50 1276.13,1039.94 1275.64,1046.07 1294.28,1047.56 1292.88,1067.06 1295.30,1067.25 1311.75,1068.57 1312.29,1068.60 1315.54,1032.51 1312.82,1029.16"/>
    <poly id="157099366" type="building.yes" color="255,230,230" fill="1" layer="-1.00" shape="1291.37,1105.01 1292.05,1105.09 1292.02,1104.62 1293.26,1104.76 1293.39,1105.77 1308.88,1107.02 1312.22,1069.43 1311.22,1069.28 1311.24,1069.04 1311.69,1069.08 1311.75,1068.57 1295.30,1067.25 1294.24,1081.02 1297.40,1081.35 1296.68,1091.30 1292.97,1090.88 1292.79,1092.27 1292.48,1092.24 1291.37,1105.01"/>
    <poly id="157099367" type="building.yes" color="255,230,230" fill="1" layer="-1.00" shape="1257.51,1038.61 1276.13,1039.94 1277.21,1026.50 1244.54,1024.06 1244.46,1024.78 1243.46,1037.62 1257.51,1038.61"/>
    <poly id="157099368" type="building.yes" color="255,230,230" fill="1" layer="-1.00" shape="1237.77,1100.48 1240.12,1071.84 1240.14,1071.62 1233.06,1071.04 1232.57,1077.07 1233.78,1077.18 1232.95,1087.35 1217.63,1086.10 1216.54,1099.46 1236.80,1101.11 1236.82,1100.81 1237.73,1100.89 1237.77,1100.48"/>
    <poly id="157099369" type="building.yes" color="255,230,230" fill="1" layer="-1.00" shape="1270.97,1103.19 1271.74,1095.04 1273.24,1075.48 1254.63,1073.94 1241.02,1072.79 1241.04,1071.92 1240.12,1071.84 1237.77,1100.48 1239.51,1100.59 1239.47,1101.36 1240.36,1101.41 1240.41,1101.79 1244.73,1102.21 1244.74,1101.25 1263.95,1102.78 1263.95,1103.81 1267.97,1104.15 1268.02,1103.72 1269.26,1103.81 1269.29,1103.06 1270.97,1103.19"/>
    <poly id="157099372" type="building.yes" color="255,230,230" fill="1" layer="-1.00" shape="1242.69,1047.40 1243.46,1037.62 1244.46,1024.78 1217.94,1022.76 1217.97,1022.02 1206.32,1021.19 1204.82,1041.66 1206.02,1041.74 1216.32,1042.44 1216.51,1041.20 1227.35,1041.85 1235.29,1042.28 1234.49,1053.13 1242.15,1053.93 1242.48,1049.82 1256.43,1050.90 1256.64,1048.65 1242.69,1047.40"/>
    <poly id="157099374" type="building.yes" color="255,230,230" fill="1" layer="-1.00" shape="1204.62,1059.71 1217.39,1060.50 1225.71,1061.30 1227.35,1041.85 1216.51,1041.20 1216.32,1042.44 1206.02,1041.74 1204.62,1059.71"/>
    <poly id="157099375" type="building.yes" color="255,230,230" fill="1" layer="-1.00" shape="1200.68,1098.21 1216.54,1099.46 1217.63,1086.10 1215.49,1085.93 1216.60,1068.37 1216.70,1065.92 1214.07,1065.66 1214.10,1063.91 1217.12,1064.14 1217.39,1060.50 1204.62,1059.71 1203.81,1059.64 1203.73,1060.84 1203.41,1060.84 1200.68,1098.21"/>
    <poly id="157099377" type="building.roof" color="255,230,230" fill="1" layer="-1.00" shape="1253.22,1093.30 1266.17,1094.22 1267.16,1084.46 1253.98,1083.17 1253.22,1093.30"/>
    <poly id="15971186" type="building.yes" color="255,230,230" fill="1" layer="-1.00" shape="1560.83,1309.67 1560.65,1311.91 1561.10,1311.96 1560.97,1313.62 1560.85,1315.06 1560.30,1315.01 1559.86,1320.50 1560.39,1320.54 1559.99,1325.52 1559.27,1325.47 1558.82,1331.08 1559.46,1331.12 1559.24,1333.93 1558.56,1333.88 1558.18,1338.75 1558.69,1338.79 1558.39,1342.64 1557.73,1342.59 1557.41,1346.62 1556.01,1346.51 1555.62,1351.28 1554.83,1351.97 1554.49,1356.94 1555.11,1357.75 1554.72,1362.68 1555.96,1362.79 1555.65,1366.71 1556.14,1366.75 1555.88,1370.09 1555.27,1370.04 1554.85,1375.33 1555.32,1375.37 1555.09,1378.37 1554.51,1378.32 1554.06,1383.99 1554.51,1384.02 1554.10,1389.14 1553.54,1389.09 1553.11,1394.47 1553.52,1394.50 1553.31,1397.20 1552.81,1397.17 1552.70,1398.54 1553.17,1398.57 1553.10,1399.43 1554.28,1399.52 1554.24,1399.97 1562.37,1400.62 1562.32,1401.23 1566.09,1401.52 1569.53,1401.80 1569.56,1401.45 1589.53,1403.03 1589.48,1403.55 1606.44,1404.90 1606.46,1404.68 1625.89,1406.22 1625.84,1406.77 1633.02,1407.35 1633.05,1406.95 1641.67,1407.63 1641.69,1407.24 1642.60,1407.32 1642.67,1406.44 1643.22,1406.49 1643.31,1405.35 1642.67,1405.30 1642.93,1402.03 1643.66,1402.09 1644.09,1396.69 1643.51,1396.63 1643.93,1391.40 1644.54,1391.45 1644.94,1386.39 1644.47,1386.34 1644.74,1383.00 1645.30,1383.04 1645.72,1377.82 1645.22,1377.79 1645.49,1374.42 1646.01,1374.47 1646.33,1370.43 1647.60,1370.54 1648.00,1365.55 1648.81,1365.08 1649.27,1360.41 1648.44,1359.70 1648.87,1354.63 1647.79,1354.54 1648.13,1350.22 1647.55,1350.17 1647.76,1347.48 1648.43,1347.53 1648.89,1341.80 1648.25,1341.75 1648.47,1338.94 1649.14,1338.99 1649.60,1333.29 1649.12,1333.26 1649.50,1328.51 1650.05,1328.55 1650.50,1322.85 1650.05,1322.80 1650.20,1320.95 1650.32,1319.52 1650.89,1319.57 1650.96,1318.77 1650.41,1318.73 1650.51,1317.49 1648.13,1317.30 1648.09,1317.83 1645.36,1317.61 1645.41,1317.04 1639.89,1316.59 1639.85,1317.13 1634.69,1316.72 1634.74,1316.11 1629.86,1315.72 1629.82,1316.27 1626.69,1316.02 1626.74,1315.39 1621.15,1314.95 1621.10,1315.52 1617.85,1315.27 1617.90,1314.63 1614.00,1314.32 1614.08,1313.33 1608.41,1312.89 1608.29,1314.40 1605.64,1314.18 1603.29,1314.00 1603.44,1312.22 1597.87,1311.77 1597.78,1312.81 1593.42,1312.46 1593.37,1313.02 1590.78,1312.82 1590.82,1312.26 1585.26,1311.82 1585.21,1312.52 1582.34,1312.30 1582.40,1311.57 1577.09,1311.16 1577.05,1311.76 1571.33,1311.31 1571.38,1310.55 1566.47,1310.16 1566.42,1310.83 1563.62,1310.61 1563.68,1309.90 1560.83,1309.67"/>
    <poly id="15976890" type="building.yes" color="255,230,230" fill="1" layer="-1.00" shape="1637.14,1268.03 1657.53,1269.78 1678.58,1271.63 1680.55,1248.12 1669.30,1247.15 1669.14,1248.88 1667.30,1248.75 1667.48,1246.92 1652.26,1245.65 1652.13,1247.45 1650.29,1247.25 1650.44,1245.49 1639.15,1244.54 1637.14,1268.03"/>
    <poly id="15976892" type="amenity.theatre" color="237,199,199" fill="1" layer="-1.00" shape="1442.13,1156.84 1442.09,1157.47 1434.55,1156.91 1433.92,1165.31 1425.29,1164.66 1424.22,1179.04 1421.90,1178.87 1420.51,1197.52 1422.82,1197.69 1421.74,1212.03 1430.15,1212.66 1427.40,1249.36 1434.75,1249.91 1434.47,1253.55 1444.39,1254.28 1452.56,1254.90 1452.82,1251.48 1460.52,1252.06 1463.31,1214.88 1472.30,1215.56 1473.35,1201.45 1476.16,1201.67 1477.56,1183.02 1474.75,1182.81 1475.83,1168.50 1466.93,1167.84 1467.56,1159.37 1460.15,1158.81 1460.19,1158.19 1442.13,1156.84"/>
    <poly id="15976892#1" type="building.yes" color="255,230,230" fill="1" layer="-1.00" shape="1442.13,1156.84 1442.09,1157.47 1434.55,1156.91 1433.92,1165.31 1425.29,1164.66 1424.22,1179.04 1421.90,1178.87 1420.51,1197.52 1422.82,1197.69 1421.74,1212.03 1430.15,1212.66 1427.40,1249.36 1434.75,1249.91 1434.47,1253.55 1444.39,1254.28 1452.56,1254.90 1452.82,1251.48 1460.52,1252.06 1463.31,1214.88 1472.30,1215.56 1473.35,1201.45 1476.16,1201.67 1477.56,1183.02 1474.75,1182.81 1475.83,1168.50 1466.93,1167.84 1467.56,1159.37 1460.15,1158.81 1460.19,1158.19 1442.13,1156.84"/>